 .Sol file Watershed HRU:2 Subbasin:2 HRU:1 Luse:URMD Soil: Lo11-2abc-4894 Slope: 0-9999 2/11/2025 12:00:00 AM ArcSWAT 2012.10_8.26
 Soil Name: Lo11-2abc-4894
 Soil Hydrologic Group: D
 Maximum rooting depth(mm) :  890.00
 Porosity fraction from which anions are excluded: 0.500
 Crack volume potential of soil: 0.500
 Texture 1                : LOAM
 Depth                [mm]:      300.00     1000.00
 Bulk Density Moist [g/cc]:        1.40        1.50
 Ave. AW Incl. Rock Frag  :        0.16        0.16
 Ksat. (est.)      [mm/hr]:        6.60        2.90
 Organic Carbon [weight %]:        0.80        0.30
 Clay           [weight %]:       22.00       29.00
 Silt           [weight %]:       32.00       30.00
 Sand           [weight %]:       46.00       40.00
 Rock Fragments   [vol. %]:        0.00        0.00
 Soil Albedo (Moist)      :        0.10        0.27
 Erosion K                :        0.30        0.30
 Salinity (EC, Form 5)    :        0.00        0.00
 Soil pH                  :        0.00        0.00
 Soil CACO3               :        0.00        0.00
                              
