 .Sol file Watershed HRU:1 Subbasin:1 HRU:1 Luse:URMD Soil: Be1-2c-4650 Slope: 0-9999 2/11/2025 12:00:00 AM ArcSWAT 2012.10_8.26
 Soil Name: Be1-2c-4650
 Soil Hydrologic Group: D
 Maximum rooting depth(mm) :  880.00
 Porosity fraction from which anions are excluded: 0.500
 Crack volume potential of soil: 0.500
 Texture 1                : LOAM
 Depth                [mm]:      300.00     1000.00
 Bulk Density Moist [g/cc]:        1.40        1.30
 Ave. AW Incl. Rock Frag  :        0.18        0.18
 Ksat. (est.)      [mm/hr]:        5.19        7.60
 Organic Carbon [weight %]:        1.30        0.60
 Clay           [weight %]:       23.00       25.00
 Silt           [weight %]:       37.00       37.00
 Sand           [weight %]:       41.00       38.00
 Rock Fragments   [vol. %]:        0.00        0.00
 Soil Albedo (Moist)      :        0.04        0.15
 Erosion K                :        0.29        0.29
 Salinity (EC, Form 5)    :        0.00        0.00
 Soil pH                  :        0.00        0.00
 Soil CACO3               :        0.00        0.00
                              
