 .Sol file Watershed HRU:97 Subbasin:97 HRU:1 Luse:URMD Soil: Lo13-2a-4896 Slope: 0-9999 2/11/2025 12:00:00 AM ArcSWAT 2012.10_8.26
 Soil Name: Lo13-2a-4896
 Soil Hydrologic Group: D
 Maximum rooting depth(mm) : 1000.00
 Porosity fraction from which anions are excluded: 0.500
 Crack volume potential of soil: 0.500
 Texture 1                : LOAM
 Depth                [mm]:      300.00     1000.00
 Bulk Density Moist [g/cc]:        1.40        1.40
 Ave. AW Incl. Rock Frag  :        0.18        0.18
 Ksat. (est.)      [mm/hr]:        5.22        4.17
 Organic Carbon [weight %]:        0.60        0.30
 Clay           [weight %]:       22.00       31.00
 Silt           [weight %]:       38.00       35.00
 Sand           [weight %]:       40.00       34.00
 Rock Fragments   [vol. %]:        0.00        0.00
 Soil Albedo (Moist)      :        0.15        0.27
 Erosion K                :        0.29        0.29
 Salinity (EC, Form 5)    :        0.00        0.00
 Soil pH                  :        0.00        0.00
 Soil CACO3               :        0.00        0.00
                              
