MODFLOW observation cells (number of cells, I,J,K for each cell)
85
49	50	1
64	15	1
54	82	1
52	73	1
180	26	1
177	27	1
176	28	1
176	30	1
176	31	1
174	29	1
173	32	1
174	35	1
169	35	1
165	35	1
164	36	1
160	39	1
159	40	1
159	40	1
159	41	1
159	41	1
159	41	1
158	43	1
156	47	1
154	51	1
150	50	1
151	50	1
148	54	1
147	54	1
147	55	1
147	57	1
146	55	1
145	55	1
146	56	1
145	59	1
144	55	1
138	59	1
134	33	1
133	63	1
126	54	1
126	40	1
123	34	1
123	34	1
123	34	1
122	23	1
121	23	1
124	69	1
124	69	1
123	68	1
121	69	1
121	69	1
121	69	1
119	69	1
116	71	1
114	71	1
114	71	1
106	38	1
105	39	1
107	84	1
107	92	1
106	87	1
104	87	1
97	113	1
100	103	1
99	84	1
98	74	1
95	72	1
96	60	1
95	55	1
90	52	1
90	61	1
94	84	1
78	107	1
84	66	1
80	66	1
76	69	1
73	67	1
70	62	1
69	61	1
68	61	1
68	61	1
67	61	1
64	49	1
159	41	1
158	43	1
144	59	1