#Drain package input file
332	0								Number of total drain cells in MODFLOW simulation			
332	0								Number of active drain cells during current stress period
1	99	111	313.4985046	100	0
1	99	112	314.8020325	100	0
1	99	113	316.3828735	100	0
1	99	114	327.4718018	100	0
1	99	115	327.3245239	100	0
1	99	116	329.5901184	100	0
1	99	117	334.1865845	100	0
1	100	117	331.6798401	100	0
1	100	118	336.5071716	100	0
1	100	119	343.2367249	100	0
1	99	119	344.9340515	100	0
1	99	118	336.6307373	100	0
1	98	118	338.1194153	100	0
1	98	119	344.5833435	100	0
1	97	119	346.1989746	100	0
1	97	118	338.2817993	100	0
1	96	118	344.3554688	100	0
1	96	119	346.1340637	100	0
1	96	120	353.8672485	100	0
1	95	120	359.2101746	100	0
1	95	121	369.5907593	100	0
1	94	121	372.0066833	100	0
1	94	120	361.7783508	100	0
1	94	122	372.7011719	100	0
1	94	123	374.192627	100	0
1	93	123	361.9128418	100	0
1	60	94	310.6271362	100	0
1	61	94	330.7124023	100	0
1	61	93	333.8307495	100	0
1	62	92	340.1575012	100	0
1	62	93	336.1356201	100	0
1	63	93	335.8713989	100	0
1	63	92	336.5966492	100	0
1	64	92	338.3519592	100	0
1	64	93	339.6512756	100	0
1	65	93	342.7984924	100	0
1	65	92	339.866272	100	0
1	66	91	345.1065369	100	0
1	67	91	352.2424011	100	0
1	68	91	357.5092468	100	0
1	69	91	361.9821777	100	0
1	69	90	359.6978149	100	0
1	69	89	351.0513306	100	0
1	70	89	326.2592468	100	0
1	71	89	348.3788757	100	0
1	72	89	360.7406616	100	0
1	73	89	359.7600708	100	0
1	74	89	363.9388428	100	0
1	74	88	365.6277771	100	0
1	73	88	364.1234131	100	0
1	72	88	362.5364075	100	0
1	71	88	357.90271	100	0
1	70	88	343.3688354	100	0
1	70	86	353.4179077	100	0
1	70	85	352.9896545	100	0
1	70	84	351.6455994	100	0
1	80	76	295.0112305	100	0
1	80	74	302.6975098	100	0
1	80	75	310.0211792	100	0
1	80	76	313.3435364	100	0
1	79	76	316.3560181	100	0
1	79	77	321.8182678	100	0
1	79	78	327.5066223	100	0
1	79	79	332.6330872	100	0
1	79	80	336.2159119	100	0
1	78	80	337.5558777	100	0
1	77	80	338.9338379	100	0
1	76	80	339.8606873	100	0
1	76	81	342.7947693	100	0
1	77	81	342.7554932	100	0
1	78	81	341.7941284	100	0
1	78	82	346.2538147	100	0
1	77	82	345.7285461	100	0
1	76	82	344.9512634	100	0
1	76	83	351.2826233	100	0
1	77	83	349.8383179	100	0
1	78	83	350.0585022	100	0
1	78	84	355.0512695	100	0
1	80	10	341.4107971	100	0
1	80	9	339.4826965	100	0
1	81	9	342.809021	100	0
1	82	9	344.8056946	100	0
1	82	8	345.6461792	100	0
1	82	7	345.0966187	100	0
1	83	7	345.8379517	100	0
1	83	8	346.6389465	100	0
1	84	8	349.4130249	100	0
1	84	7	346.5567932	100	0
1	85	7	348.6830139	100	0
1	85	8	350.5980835	100	0
1	86	8	352.2929688	100	0
1	87	8	354.370697	100	0
1	88	8	356.4927979	100	0
1	88	7	352.5001831	100	0
1	88	6	355.448822	100	0
1	88	18	324.9068298	100	0
1	89	18	326.2911072	100	0
1	90	18	331.9588318	100	0
1	91	18	332.2295227	100	0
1	92	18	333.4090576	100	0
1	92	17	330.1413574	100	0
1	93	17	332.0559082	100	0
1	94	17	336.62677	100	0
1	94	16	335.200592	100	0
1	93	16	342.2468262	100	0
1	92	16	345.3009644	100	0
1	95	16	330.9440613	100	0
1	95	17	341.3037415	100	0
1	107	29	324.6516724	100	0
1	107	28	326.4490051	100	0
1	107	27	329.1853027	100	0
1	107	26	333.6651306	100	0
1	108	26	336.4151001	100	0
1	109	26	335.5946045	100	0
1	110	26	334.9832458	100	0
1	111	26	334.5850525	100	0
1	111	25	335.968811	100	0
1	111	24	339.5754089	100	0
1	111	23	344.2349854	100	0
1	112	23	343.2489319	100	0
1	113	23	341.093689	100	0
1	114	23	337.6214905	100	0
1	115	23	335.6753235	100	0
1	115	22	339.3296814	100	0
1	115	21	345.0013428	100	0
1	115	20	347.8509827	100	0
1	115	19	350.7970886	100	0
1	114	19	349.6229553	100	0
1	114	20	349.694519	100	0
1	113	19	352.147644	100	0
1	112	19	353.2461548	100	0
1	112	18	354.633728	100	0
1	128	14	334.6367188	100	0
1	127	14	334.2187805	100	0
1	126	14	334.4260864	100	0
1	125	14	338.9123535	100	0
1	125	15	345.7908325	100	0
1	124	15	345.8530579	100	0
1	123	15	347.7957458	100	0
1	122	15	349.7728577	100	0
1	122	16	355.7392273	100	0
1	121	16	354.3814392	100	0
1	120	16	361.359314	100	0
1	120	17	360.7871704	100	0
1	121	17	362.5296021	100	0
1	121	18	356.169281	100	0
1	120	18	353.8838501	100	0
1	120	19	350.6756287	100	0
1	51	114	352.6932373	100	0
1	50	114	357.9017334	100	0
1	49	114	375.4691467	100	0
1	49	113	421.7242126	100	0
1	48	112	431.57547	100	0
1	47	112	414.0349731	100	0
1	47	111	429.4084167	100	0
1	47	110	453.0127869	100	0
1	48	110	430.8233032	100	0
1	48	111	428.3757629	100	0
1	48	109	426.8860779	100	0
1	47	109	435.566864	100	0
1	47	108	413.2670288	100	0
1	47	107	392.3208313	100	0
1	46	107	405.3397217	100	0
1	46	108	424.5869446	100	0
1	45	108	422.1820679	100	0
1	45	107	403.3277893	100	0
1	44	107	402.2296143	100	0
1	44	108	416.9961243	100	0
1	43	108	415.7924194	100	0
1	43	107	393.4606934	100	0
1	42	107	392.610199	100	0
1	42	108	406.4760437	100	0
1	41	108	399.2731323	100	0
1	41	107	390.3244324	100	0
1	29	106	315.5236511	100	0
1	28	106	318.169281	100	0
1	27	106	323.6416321	100	0
1	26	106	327.4933167	100	0
1	25	106	330.4438171	100	0
1	24	107	331.5105286	100	0
1	25	107	329.7152405	100	0
1	27	107	322.4111328	100	0
1	28	107	317.782074	100	0
1	29	107	319.0542297	100	0
1	38	66	296.8742676	100	0
1	38	67	297.771637	100	0
1	38	68	301.9208984	100	0
1	37	69	300.7887268	100	0
1	37	71	305.7066345	100	0
1	37	72	311.2660828	100	0
1	37	73	313.717041	100	0
1	37	74	319.0236511	100	0
1	38	70	306.7950745	100	0
1	38	71	308.9595947	100	0
1	54	75	306.4476624	100	0
1	55	75	314.8584595	100	0
1	56	75	313.6248779	100	0
1	57	76	319.1343994	100	0
1	58	77	320.444397	100	0
1	59	78	321.2480164	100	0
1	60	79	322.8270874	100	0
1	61	79	322.1451111	100	0
1	62	79	322.8597412	100	0
1	63	79	328.8527222	100	0
1	63	80	327.4548035	100	0
1	63	81	323.210968	100	0
1	64	81	323.990387	100	0
1	65	81	332.3831482	100	0
1	65	80	332.7112732	100	0
1	64	80	329.0967712	100	0
1	79	99	314.4414978	100	0
1	78	98	321.7311707	100	0
1	77	97	330.8609924	100	0
1	77	96	326.7028809	100	0
1	77	95	336.2820129	100	0
1	77	94	358.7913208	100	0
1	78	94	363.2977905	100	0
1	79	94	362.4469604	100	0
1	79	93	365.7664185	100	0
1	78	93	368.0160522	100	0
1	77	93	368.6367798	100	0
1	77	91	370.4223022	100	0
1	78	91	368.593689	100	0
1	79	91	363.5040894	100	0
1	79	90	364.1392517	100	0
1	78	90	367.4645691	100	0
1	77	90	366.4500732	100	0
1	88	105	292.4010925	100	0
1	88	106	302.5151062	100	0
1	88	107	321.3250122	100	0
1	88	108	332.7953796	100	0
1	88	109	337.0683899	100	0
1	88	110	336.5774841	100	0
1	89	111	333.18396	100	0
1	89	112	329.500946	100	0
1	89	113	327.3652344	100	0
1	89	114	324.7154541	100	0
1	89	115	331.0293274	100	0
1	89	116	328.5351868	100	0
1	90	116	320.184082	100	0
1	90	115	320.6250305	100	0
1	165	49	220.1039429	100	0
1	166	49	223.4037323	100	0
1	166	50	240.5910034	100	0
1	166	51	248.4976807	100	0
1	167	51	236.3239746	100	0
1	149	68	239.9736938	100	0
1	149	69	244.399765	100	0
1	150	69	258.3679199	100	0
1	150	70	255.0647125	100	0
1	64	36	307.5923157	100	0
1	63	36	312.4851074	100	0
1	62	36	309.5741577	100	0
1	62	35	305.8036804	100	0
1	61	35	305.4419556	100	0
1	60	35	304.6661987	100	0
1	59	34	303.774231	100	0
1	58	34	309.1867371	100	0
1	57	34	313.5419006	100	0
1	58	33	311.3790283	100	0
1	92	38	308.7460938	100	0
1	93	38	309.765564	100	0
1	93	37	310.900238	100	0
1	93	36	312.453064	100	0
1	93	35	314.6653748	100	0
1	93	34	316.8554382	100	0
1	94	34	316.6470337	100	0
1	94	33	316.3839111	100	0
1	94	32	319.9885254	100	0
1	94	31	320.4028015	100	0
1	95	31	321.3916931	100	0
1	95	32	319.5580139	100	0
1	96	32	317.5710144	100	0
1	93	32	318.6908875	100	0
1	93	31	321.1246643	100	0
1	96	31	321.1929626	100	0
1	44	83	310.1550903	100	0
1	44	82	309.9234314	100	0
1	44	81	308.7926941	100	0
1	44	80	311.8615723	100	0
1	44	79	311.8317261	100	0
1	43	79	311.4018555	100	0
1	43	80	310.3087769	100	0
1	42	80	311.672699	100	0
1	42	79	312.2074585	100	0
1	42	78	313.7808228	100	0
1	42	77	313.5364685	100	0
1	42	76	313.7632446	100	0
1	42	75	313.0546875	100	0
1	42	74	311.5371704	100	0
1	42	73	313.0335693	100	0
1	43	73	312.371582	100	0
1	43	74	313.2921753	100	0
1	43	75	313.5469666	100	0
1	43	76	314.0472107	100	0
1	43	77	313.2917786	100	0
1	44	77	313.7692261	100	0
1	44	76	318.6502686	100	0
1	44	75	314.6848145	100	0
1	45	75	317.1705933	100	0
1	46	75	317.424408	100	0
1	47	75	316.3608704	100	0
1	81	73	293.5830078	100	0
1	82	73	285.5976257	100	0
1	83	73	282.0432129	100	0
1	84	73	281.1849976	100	0
1	80	73	295.0112305	100	0
1	79	75	311.2670898	100	0
1	78	76	319.8889465	100	0
1	76	77	326.7676697	100	0
1	74	78	336.9455261	100	0
1	72	79	340.331604	100	0
1	70	79	335.3099365	100	0
1	69	79	334.8557129	100	0
1	69	81	341.1554871	100	0
1	68	84	344.9251709	100	0
1	65	84	324.3388977	100	0
1	65	83	322.881897	100	0
1	67	83	336.0992432	100	0
1	67	81	336.3229675	100	0
1	67	79	333.2141724	100	0
1	70	81	338.151886	100	0
1	71	81	341.4997253	100	0
1	81	85	360.57724	100	0
1	83	85	352.8335876	100	0
1	83	87	361.9416504	100	0
1	81	87	359.9447937	100	0
1	81	88	360.5534973	100	0
1	78	86	368.1258545	100	0
1	75	86	369.1633911	100	0
1	73	83	352.1976624	100	0
1	73	82	345.7693481	100	0