 'MT3D4.00.00'        5023        5021        5018        5020        5008
           0           0           0           1           0           0
           0           0           0           0           0           0
           0           0           0           0
