 Groundwater/Surface Water exchange (L3/T)
 for each MODFLOW River Cell
 Positive: River water seeps to the aquifer
 Negative: Groundwater flows from aquifer to river
 
 Day:           1
 Layer, Row, Column, Flow Rate
           1         192          18  -212326.6    
           1         193          18  -396362.7    
           1         191          19  -380734.4    
           1         191          20  -614036.7    
           1         191          21  -308326.3    
           1         190          22  -411425.2    
           1         189          23  -477280.8    
           1         190          23  -24748.81    
           1         185          22  -329359.7    
           1         186          22  -80758.65    
           1         187          22  -449243.1    
           1         189          22  -241890.7    
           1         184          23  -267763.5    
           1         188          23  -432095.8    
           1         183          24  -589460.0    
           1         183          25  -571902.5    
           1         179          26  -300616.2    
           1         180          26  -431515.2    
           1         183          26  -668043.5    
           1         181          26  -92039.09    
           1         182          26  -163997.1    
           1         178          27  -192751.1    
           1         177          28  -260824.2    
           1         176          29  -139318.7    
           1         177          29  -74179.57    
           1         174          30  -196423.6    
           1         175          30  -82514.55    
           1         176          30  -225326.0    
           1         174          31  -96800.08    
           1         176          31  -406118.1    
           1         172          32  -459093.5    
           1         173          32  -216499.4    
           1         174          32  -165528.1    
           1         171          33  -63604.20    
           1         172          33  -262595.4    
           1         166          34  -73865.34    
           1         167          34  -95963.20    
           1         168          34  -164341.3    
           1         169          34  -218627.5    
           1         170          34  -394714.8    
           1         171          34  -232088.8    
           1         165          35  -183685.1    
           1         166          35  -128063.9    
           1         164          36  -97068.14    
           1         165          36  -112710.5    
           1         163          38  -131550.3    
           1         162          39  -122543.9    
           1         162          40  -68617.04    
           1         163          40  -146995.2    
           1         163          41  -335808.2    
           1         163          42  -221502.5    
           1         162          43  -136074.2    
           1         163          43  -12153.05    
           1         162          44  -254247.6    
           1         161          45  -185328.4    
           1         162          45  -63933.11    
           1         161          46  -118494.3    
           1         161          47  -183838.1    
           1         158          47  -131251.2    
           1         159          47  -204117.9    
           1         160          47  -185784.1    
           1         157          48  -258389.7    
           1         158          48  0.0000000E+00
           1         155          46  -68254.15    
           1         156          46  -174769.4    
           1         157          46  -9888.284    
           1         157          47  -62800.37    
           1         156          48  -31076.10    
           1         154          47  -149585.4    
           1         155          47  -114609.6    
           1         152          48  -81488.09    
           1         153          48  -199568.9    
           1         154          48  -101228.7    
           1         150          49  -411539.1    
           1         151          49  -234161.2    
           1         152          49  -98979.19    
           1         149          51  -186832.6    
           1         148          52  -179374.9    
           1         149          52  -78179.16    
           1         148          53  -142309.7    
           1         148          54  -153560.6    
           1         148          55  -172475.1    
           1         148          56  -8973.099    
           1         147          56  -155554.6    
           1         147          57  -150046.0    
           1         146          58  -114800.7    
           1         147          58  -87638.38    
           1         137          59  -278649.2    
           1         138          59  -544562.2    
           1         139          59  -371094.0    
           1         144          59  -183195.0    
           1         145          59  -232278.8    
           1         146          59  0.0000000E+00
           1         136          60  -389954.9    
           1         140          60  -342988.9    
           1         141          60  -335254.5    
           1         142          60  -365769.1    
           1         143          60  -396353.8    
           1         144          60  -62852.21    
           1         135          60  -304265.3    
           1         133          61  -86622.21    
           1         134          61  -272489.6    
           1         135          61  -1314.293    
           1         130          62  -2905.175    
           1         131          62  -317006.5    
           1         132          62  -192067.9    
           1         133          62  -398655.1    
           1         130          63  0.0000000E+00
           1         131          64  -137193.3    
           1         132          64  -192186.0    
           1         131          65  -84599.20    
           1         131          66  -146132.1    
           1         127          65  -297897.8    
           1         128          65  -327347.2    
           1         129          65  -276852.9    
           1         130          65  -182311.4    
           1         126          66  -131614.7    
           1         126          67  -4128.439    
           1         122          67  -82596.45    
           1         125          67  -132950.7    
           1         123          68  -42002.82    
           1         124          68  -164979.6    
           1         125          68  -346368.7    
           1         121          67  0.0000000E+00
           1         121          68  0.0000000E+00
           1         120          68  -148657.2    
           1         119          67  -166979.2    
           1         118          68  -40626.27    
           1         119          68  -121974.2    
           1         118          69  -84679.70    
           1         103          70  -262099.5    
           1         104          70  -247606.0    
           1         109          70  -302587.1    
           1         110          70  -275878.2    
           1         111          70  -240304.5    
           1         112          70  -232620.1    
           1         117          70  -40446.70    
           1         101          71  -184644.3    
           1         102          71  -265669.5    
           1         105          71  -256604.8    
           1         106          71  -639557.8    
           1         107          71  -287823.3    
           1         108          71  0.0000000E+00
           1         117          71  -47950.44    
           1          98          72  -167904.6    
           1          99          72  -150190.1    
           1         100          72  -40060.64    
           1         101          72  -101558.4    
           1         114          72  -118093.3    
           1         115          72  -268852.6    
           1         116          72  -94302.08    
           1          92          67  -90454.23    
           1          92          68  -80624.12    
           1          93          68  -140342.4    
           1          94          68  0.0000000E+00
           1          94          69  -22947.64    
           1          95          69  -157706.2    
           1          96          70  -74794.09    
           1          97          70  -77993.95    
           1          97          71  -37345.42    
           1          86          66  -71086.14    
           1          87          66  -72469.16    
           1          88          66  -65475.80    
           1          88          67  -38571.57    
           1          89          67  -4724.721    
           1          89          68  -78970.10    
           1          90          68  -15665.25    
           1          91          68  -30539.61    
           1         121          69  -87124.70    
           1         120          70  -18830.98    
           1         121          70  -80781.83    
           1         120          71  -142841.9    
           1         119          72  -66687.16    
           1         120          72  -103492.0    
           1         119          73  -139228.0    
           1         118          74  -82825.92    
           1         119          74  -127103.5    
           1         118          75  -105392.0    
           1         117          76  -149983.3    
           1         117          77  -207551.1    
           1         115          78  -1495.609    
           1         116          78  -243658.5    
           1         117          78  -98250.75    
           1         114          79  -76292.44    
           1         115          79  -323433.9    
           1         114          80  -134664.2    
           1         113          80  0.0000000E+00
           1         111          81  -119858.4    
           1         112          81  -153599.6    
           1          75          63  -200418.7    
           1          76          63  -172653.7    
           1          77          63  -125139.8    
           1          78          63  -90856.92    
           1          79          63  -63970.61    
           1          75          64  -95994.96    
           1          80          64  -155259.0    
           1          81          64  -87581.36    
           1          82          65  -36019.04    
           1          83          65  -166081.9    
           1          84          65  -101956.0    
           1          84          66  -73433.86    
           1         111          82  -100945.4    
           1         110          83  -71981.48    
           1         111          83  -76128.64    
           1         109          84  -58745.91    
           1         110          84  -117809.9    
           1         104          58  -209768.1    
           1         105          58  -266654.3    
           1         106          58  -280127.5    
           1         107          58  -299035.3    
           1         108          59  -427555.2    
           1         109          59  -70890.30    
           1         109          60  -625629.6    
           1         109          61  -108003.0    
           1         110          61  -492415.3    
           1         111          61  -39269.27    
           1         111          62  -251117.5    
           1         112          62  -46709.96    
           1         112          63  -246262.1    
           1         113          63  -26987.43    
           1         113          64  -306412.8    
           1         113          65  -319566.5    
           1         115          66  -346793.9    
           1         116          67  -282272.5    
           1         117          67  -19059.51    
           1         118          67  -60087.10    
           1          71          61  -75062.66    
           1          72          61  -261981.5    
           1          73          61  -127371.5    
           1          70          62  0.0000000E+00
           1          71          62  -157459.1    
           1          73          62  -77941.68    
           1          74          62  -101840.3    
           1          74          63  -32067.47    
           1         108          84  -20416.95    
           1         107          85  -60564.87    
           1         108          85  -45370.88    
           1         107          86  -43160.64    
           1         106          87  -28579.00    
           1         107          87  -20497.91    
           1         106          88  -61811.69    
           1          93          55  -175574.9    
           1          95          55  0.0000000E+00
           1          96          55  -118405.6    
           1          97          55  -130804.9    
           1          98          55  -114758.9    
           1          93          56  -139234.7    
           1          94          56  -198234.9    
           1          95          56  -11521.78    
           1          99          56  -48490.58    
           1         100          56  -100791.5    
           1         100          57  -45523.65    
           1         101          57  -99109.81    
           1         102          57  -45471.40    
           1         103          58  -191269.1    
           1          70          63  -254147.4    
           1          70          64  -153672.2    
           1          66          65  -82625.91    
           1          67          65  -84551.19    
           1          68          65  -51389.65    
           1          65          66  -62744.00    
           1          66          66  -2739.140    
           1          64          67  -62881.39    
           1          65          67  0.0000000E+00
           1          63          67  0.0000000E+00
           1          61          68  -123891.5    
           1          62          68  -65647.72    
           1          57          70  -20598.56    
           1          58          70  -92780.74    
           1          59          70  -125009.3    
           1          60          70  -126299.0    
           1          57          71  -118707.5    
           1         106          89  -32526.84    
           1         105          90  -23364.52    
           1         106          90  -41074.38    
           1         105          91  -59177.85    
           1         106          91  -106126.2    
           1         105          92  -192716.2    
           1         104          93  -214093.3    
           1         105          93  -31397.46    
           1         103          94  -132220.1    
           1         103          95  -229669.7    
           1         103          96  -180432.8    
           1         101          97  0.0000000E+00
           1         102          97  -190230.2    
           1         101          98  -295739.2    
           1         101          99  0.0000000E+00
           1         101         100  -266191.6    
           1          55          71  0.0000000E+00
           1          56          71  -118872.1    
           1          55          72  -91987.37    
           1         139          53  -174721.5    
           1         139          54  0.0000000E+00
           1         140          54  -173444.6    
           1         141          54  -170121.6    
           1         142          54  -98342.28    
           1         143          54  -40424.54    
           1         145          54  -210992.4    
           1         146          54  -114076.9    
           1         147          54  -88304.38    
           1          87          52  -278071.2    
           1          88          52  -199693.3    
           1          89          52  -169757.2    
           1          89          53  -133757.1    
           1          90          53  -218505.2    
           1          90          54  -108704.2    
           1          91          54  -133239.4    
           1          91          55  -166620.2    
           1          92          55  -196400.8    
           1          79          52  -74263.27    
           1          80          52  -113522.8    
           1          81          52  -93077.38    
           1          99          99  -97725.70    
           1         100          99  -121784.0    
           1          98         100  -172187.4    
           1          99         100  -148216.1    
           1          96         101  -137202.5    
           1          97         101  -152352.4    
           1          98         101  -126871.7    
           1          91         102  -76661.88    
           1          92         102  -106489.1    
           1          93         102  -100340.0    
           1          94         102  -57911.26    
           1          95         102  -116179.1    
           1          96         102  -120813.9    
           1          94         103  -153413.8    
           1         135          46  -75482.69    
           1         135          47  -363703.2    
           1         136          47  -191926.7    
           1         137          48  -221498.1    
           1         137          49  0.0000000E+00
           1         138          50  -427715.2    
           1         139          50  -136869.3    
           1         139          51  -253230.8    
           1         139          52  -163999.8    
           1         140          52  0.0000000E+00
           1         159          35  -197727.2    
           1         159          36  -170043.1    
           1         159          37  -119379.0    
           1         160          37  -170094.2    
           1         161          37  0.0000000E+00
           1         162          37  -394878.8    
           1         163          37  -161375.1    
           1          76          52  -185928.2    
           1          77          52  -87380.54    
           1          78          52  -44601.24    
           1          64          61  -94474.38    
           1          65          61  -193421.1    
           1          66          61  -267808.7    
           1          66          62  -21172.07    
           1          67          62  -172047.6    
           1          68          62  -192932.9    
           1          69          62  -59940.89    
           1          68          63  0.0000000E+00
           1          69          63  0.0000000E+00
           1         135          39  -62133.50    
           1         135          40  -99752.27    
           1         136          40  -187619.8    
           1         135          41  -253388.8    
           1         134          42  -271885.6    
           1         135          42  0.0000000E+00
           1         134          43  -98573.41    
           1         135          43  -142091.7    
           1         135          44  0.0000000E+00
           1         135          45  -229950.7    
           1          89         102  -117337.1    
           1          90         102  -87735.57    
           1          83         103  -74644.32    
           1          84         103  -99638.88    
           1          85         103  -113097.1    
           1          86         103  -124614.9    
           1          87         103  -80454.31    
           1          88         103  -83328.79    
           1          54          73  0.0000000E+00
           1          55          73  -166196.9    
           1          54          74  -137125.6    
           1          53          75  -149321.6    
           1          52          76  -69200.42    
           1          53          76  0.0000000E+00
           1          51          77  -31820.50    
           1          52          77  -8056.472    
           1          51          78  -52768.21    
           1          51          79  -67220.12    
           1          51          80  -43146.29    
           1          52          80  -32457.37    
           1          52          81  -41612.87    
           1          53          81  -4476.707    
           1          53          82  -103981.1    
           1          53          83  -29910.79    
           1          54          83  0.0000000E+00
           1          54          84  -93825.86    
           1          55          84  0.0000000E+00
           1          55          85  -83983.88    
           1          55          86  0.0000000E+00
           1          55          87  -188432.4    
           1          55          88  0.0000000E+00
           1          55          89  -73262.54    
           1          55          90  -107975.0    
           1          55          91  -49914.01    
           1          54          91  -20730.85    
           1         129          37  -142896.4    
           1         130          37  -15698.64    
           1         131          37  -139891.8    
           1         132          37  -21121.79    
           1         128          38  -127499.5    
           1         129          38  -37984.73    
           1         132          38  0.0000000E+00
           1         133          38  -204504.3    
           1         134          38  -28133.55    
           1         134          39  -164401.1    
           1          62          54  -80965.80    
           1          63          54  -55078.11    
           1          62          55  -114277.7    
           1          63          55  0.0000000E+00
           1          62          56  -110617.6    
           1          62          57  -133618.1    
           1          62          58  -81491.66    
           1          63          59  -137812.5    
           1          63          60  -17503.98    
           1          64          60  -179980.7    
           1          48          90  -10228.58    
           1          49          90  -23297.39    
           1          50          90  -62743.42    
           1          51          90  -533.5203    
           1          51          91  -42713.80    
           1          52          91  -35114.91    
           1          53          91  -47549.62    
           1          70          39  -5632.192    
           1          71          39  -9669.730    
           1          71          40  -47721.73    
           1          71          41  -81934.25    
           1          72          42  -25323.29    
           1          73          42  0.0000000E+00
           1          73          43  -24952.70    
           1          74          43  -81476.79    
           1          73          44  0.0000000E+00
           1          74          44  -26213.78    
           1          73          45  -261329.5    
           1          73          46  0.0000000E+00
           1          74          46  0.0000000E+00
           1          74          47  0.0000000E+00
           1          74          48  -22793.79    
           1          75          48  -122342.6    
           1          75          49  -78670.81    
           1          75          50  0.0000000E+00
           1          76          50  -16066.36    
           1          76          51  -179393.8    
           1         122          37  -86022.24    
           1         123          37  -148938.5    
           1         124          37  -112557.7    
           1         121          38  -9522.837    
           1         124          38  0.0000000E+00
           1         125          38  -137748.5    
           1         126          38  -142510.0    
           1         127          38  0.0000000E+00
           1          76         103  -71086.26    
           1          77         103  -45033.46    
           1          81         103  -42123.96    
           1          82         103  -43241.98    
           1          74         104  -134613.1    
           1          78         104  -85577.65    
           1          79         104  -76105.41    
           1          80         104  -73707.97    
           1          81         104  -7218.949    
           1          73         105  -32871.48    
           1          96          72  -13222.07    
           1          97          72  -94543.35    
           1          41          91  -13241.50    
           1          42          91  -18333.46    
           1          43          91  -33700.54    
           1          44          91  -22027.94    
           1          45          91  -35008.64    
           1          46          91  -11215.40    
           1          70         104  -62872.82    
           1          71         104  -39386.48    
           1          72         104  -70222.63    
           1          72         105  -43593.37    
           1          95          73  -50533.98    
           1          96          73  -119200.1    
           1          95          74  -251520.4    
           1          95          75  -136974.0    
           1         140          26  -260338.4    
           1         141          26  -163771.7    
           1         143          26  -396728.0    
           1         144          26  0.0000000E+00
           1         145          26  -255269.5    
           1         147          26  -323384.4    
           1         148          27  -311643.9    
           1         150          28  -254348.6    
           1         151          29  -205158.9    
           1         151          30  -117927.8    
           1         152          30  -315387.3    
           1         152          31  0.0000000E+00
           1         153          31  -295430.2    
           1         154          31  0.0000000E+00
           1         154          32  -245344.0    
           1         155          33  -295689.2    
           1         155          34  -117466.4    
           1         156          34  -321831.2    
           1         157          35  -271911.4    
           1         158          35  -18511.05    
           1         158          36  -92691.55    
           1         100         100  -114289.0    
           1         100         101  -28446.88    
           1         100         102  -53042.49    
           1         100         103  -80767.55    
           1         100         104  -53140.11    
           1         100         105  -129155.1    
           1          99         106  -281998.6    
           1          99         107  -103752.7    
           1          99         108  -68336.26    
           1          55          48  0.0000000E+00
           1          56          48  -105896.9    
           1          51          49  -34433.79    
           1          52          49  -55606.56    
           1          53          49  0.0000000E+00
           1          54          49  -85882.77    
           1          55          49  -924.0766    
           1          56          49  0.0000000E+00
           1          57          49  -294632.2    
           1          57          50  0.0000000E+00
           1          58          50  -170982.0    
           1          59          50  -137181.1    
           1          59          51  -8819.839    
           1          59          52  -99566.92    
           1          60          52  -61173.01    
           1          60          53  -45501.93    
           1          61          53  -129896.5    
           1          81          26  0.0000000E+00
           1          81          27  0.0000000E+00
           1          82          27  0.0000000E+00
           1          82          28  0.0000000E+00
           1          81          29  -35844.73    
           1          82          29  -31224.34    
           1          82          30  -203348.5    
           1          81          31  0.0000000E+00
           1          82          31  0.0000000E+00
           1          81          32  0.0000000E+00
           1          82          32  -201540.0    
           1          82          33  0.0000000E+00
           1          81          34  -36854.91    
           1          80          35  0.0000000E+00
           1          81          35  0.0000000E+00
           1          80          36  -73711.74    
           1          80          37  -5020.790    
           1          80          38  -7004.739    
           1          81          38  -7618.601    
           1          80          39  -48173.11    
           1          81          39  -8024.970    
           1          80          40  -27270.14    
           1          81          40  -7554.150    
           1          81          41  -3902.758    
           1          80          42  -28883.39    
           1          80          43  -8602.217    
           1          80          44  -10812.18    
           1          81          44  -5387.014    
           1          81          45  0.0000000E+00
           1          79          46  -72797.23    
           1          80          46  0.0000000E+00
           1          79          47  -102545.0    
           1          80          48  0.0000000E+00
           1          80          49  0.0000000E+00
           1          81          49  -77187.41    
           1          80          50  -74942.57    
           1          81          50  0.0000000E+00
           1          79          51  0.0000000E+00
           1          80          51  -149109.9    
           1         144          15  -236779.0    
           1         145          15  0.0000000E+00
           1         145          16  -398144.9    
           1         146          17  -424462.2    
           1         147          17  -169300.0    