 Yearly Averaged GW/SW Rates for MODFLOW
 
 year:        2001
 Layer, Row, Column, Rate
           1         192          18   45081.69    
           1         193          18  -143933.0    
           1         191          19  -35541.38    
           1         191          20  -134582.5    
           1         191          21   73665.33    
           1         190          22  -107127.7    
           1         189          23  -349808.4    
           1         190          23   62195.98    
           1         185          22  -50013.32    
           1         186          22   48393.45    
           1         187          22  -162570.9    
           1         189          22   14240.91    
           1         184          23  -10275.58    
           1         188          23  -35435.44    
           1         183          24  -106565.5    
           1         183          25  -145941.1    
           1         179          26  -115970.6    
           1         180          26  -183471.3    
           1         183          26  -271058.4    
           1         181          26   27334.69    
           1         182          26   57389.08    
           1         178          27  -88183.36    
           1         177          28  -117267.5    
           1         176          29  -63386.10    
           1         177          29   58766.84    
           1         174          30  -134200.4    
           1         175          30  -42052.50    
           1         176          30  -98056.44    
           1         174          31  -36608.49    
           1         176          31  -159909.7    
           1         172          32  -43524.67    
           1         173          32  -102993.8    
           1         174          32  -75329.02    
           1         171          33   50126.04    
           1         172          33  -66936.54    
           1         166          34   8782.434    
           1         167          34   6796.293    
           1         168          34  -69636.02    
           1         169          34  -45208.94    
           1         170          34  -69244.73    
           1         171          34  -51703.29    
           1         165          35  -95029.71    
           1         166          35  -56047.89    
           1         164          36   38917.66    
           1         165          36  -70963.03    
           1         163          38  -28309.61    
           1         162          39  -41879.48    
           1         162          40   39905.97    
           1         163          40   8577.502    
           1         163          41  -179588.8    
           1         163          42   8756.347    
           1         162          43  -32347.06    
           1         163          43   39220.56    
           1         162          44  -29898.81    
           1         161          45  -108570.9    
           1         162          45   49755.23    
           1         161          46   14007.69    
           1         161          47  -90845.83    
           1         158          47  -27806.74    
           1         159          47  -65866.76    
           1         160          47  -65970.05    
           1         157          48  -102275.9    
           1         158          48   25745.74    
           1         155          46   38166.68    
           1         156          46  -143601.1    
           1         157          46   177.8790    
           1         157          47  -37306.53    
           1         156          48  -17615.52    
           1         154          47   18712.62    
           1         155          47  -88271.95    
           1         152          48   57274.06    
           1         153          48  -85525.15    
           1         154          48  -64812.54    
           1         150          49  -195976.9    
           1         151          49  -101057.3    
           1         152          49  -34866.80    
           1         149          51  -114210.0    
           1         148          52  -119165.8    
           1         149          52   206.3475    
           1         148          53  -85054.28    
           1         148          54  -68378.95    
           1         148          55  -20116.55    
           1         148          56   51728.07    
           1         147          56  -100732.6    
           1         147          57  -58611.21    
           1         146          58  -70842.70    
           1         147          58  -7707.134    
           1         137          59   34977.79    
           1         138          59  -174787.0    
           1         139          59   34119.88    
           1         144          59  -71725.28    
           1         145          59  -62167.79    
           1         146          59   42761.08    
           1         136          60  -159419.5    
           1         140          60  -99605.25    
           1         141          60  -166425.3    
           1         142          60  -137886.1    
           1         143          60  -123087.2    
           1         144          60   26898.44    
           1         135          60  -139628.0    
           1         133          61  -55167.21    
           1         134          61  -13856.03    
           1         135          61   18225.12    
           1         130          62   94005.86    
           1         131          62  -172416.1    
           1         132          62  -124487.6    
           1         133          62  -112489.6    
           1         130          63   71256.51    
           1         131          64  -68619.68    
           1         132          64  -106711.7    
           1         131          65  -62654.39    
           1         131          66  -91525.11    
           1         127          65  -76879.82    
           1         128          65  -83659.74    
           1         129          65  -92787.07    
           1         130          65  -96429.34    
           1         126          66  -48637.40    
           1         126          67   75336.93    
           1         122          67  -29519.37    
           1         125          67  -53035.66    
           1         123          68   23935.93    
           1         124          68  -71391.27    
           1         125          68  -126825.9    
           1         121          67   8441.822    
           1         121          68   69660.23    
           1         120          68  -95083.48    
           1         119          67   43305.26    
           1         118          68   7523.856    
           1         119          68  -87625.95    
           1         118          69  -56340.53    
           1         103          70  -139318.7    
           1         104          70   30487.59    
           1         109          70  -116964.4    
           1         110          70  -100588.3    
           1         111          70  -67203.16    
           1         112          70  -38325.60    
           1         117          70   2451.050    
           1         101          71  -116426.1    
           1         102          71  -104279.8    
           1         105          71   21483.76    
           1         106          71  -320644.2    
           1         107          71   12246.32    
           1         108          71   77531.32    
           1         117          71   1514.703    
           1          98          72  -79245.57    
           1          99          72   4247.768    
           1         100          72   73001.81    
           1         101          72   31555.33    
           1         114          72   55174.42    
           1         115          72  -115173.2    
           1         116          72   12689.08    
           1          92          67  -9640.214    
           1          92          68  -68807.68    
           1          93          68   3911.157    
           1          94          68   29796.44    
           1          94          69   54662.31    
           1          95          69  -8930.391    
           1          96          70  -18859.82    
           1          97          70  -22330.01    
           1          97          71  -21398.73    
           1          86          66  -62941.02    
           1          87          66  -56970.03    
           1          88          66  -54188.70    
           1          88          67  -39919.53    
           1          89          67  -4278.437    
           1          89          68  -80043.87    
           1          90          68  -9299.201    
           1          91          68  -22748.17    
           1         121          69  -55864.16    
           1         120          70  -2978.776    
           1         121          70  -17434.33    
           1         120          71  -83790.36    
           1         119          72  -30772.89    
           1         120          72  -4797.976    
           1         119          73  -54099.57    
           1         118          74  -45654.19    
           1         119          74  -32678.28    
           1         118          75  -19414.28    
           1         117          76  -38090.93    
           1         117          77  -55324.58    
           1         115          78   21170.46    
           1         116          78  -47310.19    
           1         117          78   38414.66    
           1         114          79   13855.34    
           1         115          79  -156974.2    
           1         114          80  -14377.53    
           1         113          80   37226.04    
           1         111          81  -92724.38    
           1         112          81  -92555.40    
           1          75          63  -162127.7    
           1          76          63  -113292.5    
           1          77          63  -65137.18    
           1          78          63  -39863.60    
           1          79          63   773.1544    
           1          75          64   724.6338    
           1          80          64  -105726.0    
           1          81          64  -41901.05    
           1          82          65  -30153.71    
           1          83          65  -144058.7    
           1          84          65  -76715.61    
           1          84          66  -64763.94    
           1         111          82  -88657.79    
           1         110          83  -65255.06    
           1         111          83  -33023.35    
           1         109          84  -55456.34    
           1         110          84  -73921.37    
           1         104          58  -90659.30    
           1         105          58  -85972.89    
           1         106          58  -81244.66    
           1         107          58  -68361.55    
           1         108          59  -150834.3    
           1         109          59   50784.32    
           1         109          60  -262181.5    
           1         109          61   20656.37    
           1         110          61  -209097.4    
           1         111          61   45207.12    
           1         111          62  -85475.94    
           1         112          62   44267.65    
           1         112          63  -104433.9    
           1         113          63   21893.12    
           1         113          64  -124652.5    
           1         113          65  -75007.60    
           1         115          66  -129282.3    
           1         116          67  -106325.5    
           1         117          67   72276.63    
           1         118          67   69813.71    
           1          71          61   28716.28    
           1          72          61  -142085.9    
           1          73          61  -17068.89    
           1          70          62   32750.80    
           1          71          62  -115188.0    
           1          73          62  -44062.42    
           1          74          62  -52714.59    
           1          74          63   841.6590    
           1         108          84  -19144.86    
           1         107          85  -60928.73    
           1         108          85  -45913.66    
           1         107          86  -43334.25    
           1         106          87  -23735.59    
           1         107          87  -22147.57    
           1         106          88  -58118.58    
           1          93          55  -117906.8    
           1          95          55   21360.66    
           1          96          55  -68348.78    
           1          97          55  -77536.54    
           1          98          55  -64180.23    
           1          93          56  -40062.42    
           1          94          56  -101668.4    
           1          95          56   31806.69    
           1          99          56   9024.921    
           1         100          56  -61856.67    
           1         100          57   9855.548    
           1         101          57  -63735.84    
           1         102          57  -4225.648    
           1         103          58  -99398.03    
           1          70          63  -180662.0    
           1          70          64  -17910.88    
           1          66          65  -31242.74    
           1          67          65  -43874.98    
           1          68          65   2069.775    
           1          65          66  -29904.83    
           1          66          66   13475.08    
           1          64          67  -31759.32    
           1          65          67   10598.22    
           1          63          67   31428.75    
           1          61          68  -59474.77    
           1          62          68  -15261.73    
           1          57          70   5999.889    
           1          58          70  -37578.95    
           1          59          70  -64077.12    
           1          60          70  -54729.37    
           1          57          71  -66366.28    
           1         106          89  -33083.84    
           1         105          90  -20158.71    
           1         106          90  -35621.64    
           1         105          91  -41495.11    
           1         106          91  -65626.62    
           1         105          92  -109640.2    
           1         104          93  -98690.14    
           1         105          93   30390.38    
           1         103          94  -11067.76    
           1         103          95  -111753.6    
           1         103          96  -29500.24    
           1         101          97   94374.98    
           1         102          97  -14758.77    
           1         101          98  -110383.0    
           1         101          99   15928.81    
           1         101         100  -162705.1    
           1          55          71   30649.76    
           1          56          71  -46127.96    
           1          55          72  -43047.32    
           1         139          53  -130045.7    
           1         139          54   43868.25    
           1         140          54  -81906.95    
           1         141          54  -22499.54    
           1         142          54   62987.27    
           1         143          54   16310.71    
           1         145          54  -33671.57    
           1         146          54  -68754.57    
           1         147          54  -70374.58    
           1          87          52  -136745.1    
           1          88          52  -105837.8    
           1          89          52  -57844.49    
           1          89          53  -61677.17    
           1          90          53  -137722.2    
           1          90          54  -24454.92    
           1          91          54  -62861.77    
           1          91          55  -59005.10    
           1          92          55  -137549.9    
           1          79          52  -46011.32    
           1          80          52  -81343.95    
           1          81          52  -52470.20    
           1          99          99   12978.72    
           1         100          99   1481.132    
           1          98         100  -38397.03    
           1          99         100  -95624.35    
           1          96         101  -73812.39    
           1          97         101  -63952.18    
           1          98         101  -29950.47    
           1          91         102  -55815.23    
           1          92         102  -69396.30    
           1          93         102  -57957.69    
           1          94         102  -27796.26    
           1          95         102  -79313.66    
           1          96         102  -48812.28    
           1          94         103  -64317.22    
           1         135          46   18937.82    
           1         135          47  -250849.6    
           1         136          47   49657.72    
           1         137          48   43768.34    
           1         137          49   79902.23    
           1         138          50  -215003.8    
           1         139          50   25757.02    
           1         139          51  -149507.5    
           1         139          52  -140874.2    
           1         140          52   69356.50    
           1         159          35  -30950.83    
           1         159          36  -55078.91    
           1         159          37  -84061.77    
           1         160          37   35618.13    
           1         161          37   81303.72    
           1         162          37  -184697.7    
           1         163          37  -49356.07    
           1          76          52  -132132.2    
           1          77          52  -53337.71    
           1          78          52  -12281.07    
           1          64          61  -51993.75    
           1          65          61  -105945.2    
           1          66          61  -117051.6    
           1          66          62   6611.541    
           1          67          62  -44626.62    
           1          68          62  -89376.58    
           1          69          62   23857.73    
           1          68          63   14603.31    
           1          69          63   21307.68    
           1         135          39  -27370.82    
           1         135          40  -45501.18    
           1         136          40  -104591.2    
           1         135          41  -100190.7    
           1         134          42  -109926.5    
           1         135          42   41085.23    
           1         134          43  -62502.28    
           1         135          43  -30174.87    
           1         135          44   74664.28    
           1         135          45  -141299.1    
           1          89         102  -61152.48    
           1          90         102  -59884.06    
           1          83         103  -54971.17    
           1          84         103  -64450.69    
           1          85         103  -74091.02    
           1          86         103  -83076.39    
           1          87         103  -48299.00    
           1          88         103  -47719.77    
           1          54          73   97270.78    
           1          55          73  -89574.32    
           1          54          74  -59873.93    
           1          53          75  -99943.73    
           1          52          76  -52800.57    
           1          53          76   39899.97    
           1          51          77  -7492.531    
           1          52          77   1959.910    
           1          51          78  -32396.73    
           1          51          79  -40854.23    
           1          51          80  -10918.83    
           1          52          80  -16687.63    
           1          52          81  -2146.458    
           1          53          81   16427.86    
           1          53          82  -73414.01    
           1          53          83  -1310.998    
           1          54          83   18589.22    
           1          54          84  -55646.15    
           1          55          84   18037.51    
           1          55          85  -58648.07    
           1          55          86   60094.75    
           1          55          87  -142559.8    
           1          55          88   55649.15    
           1          55          89  -29170.10    
           1          55          90  -63659.46    
           1          55          91  -42020.13    
           1          54          91   635.1620    
           1         129          37  -79582.38    
           1         130          37   81850.78    
           1         131          37  -57415.89    
           1         132          37   37989.31    
           1         128          38  -66485.56    
           1         129          38   13811.47    
           1         132          38   38182.17    
           1         133          38  -105756.6    
           1         134          38   20786.01    
           1         134          39  -77363.83    
           1          62          54  -52212.12    
           1          63          54  -14284.26    
           1          62          55  -45744.65    
           1          63          55   21116.17    
           1          62          56  -28642.28    
           1          62          57  -37972.11    
           1          62          58   3510.016    
           1          63          59  -26976.49    
           1          63          60   40354.37    
           1          64          60  -62947.88    
           1          48          90   1611.665    
           1          49          90   10156.62    
           1          50          90  -45571.23    
           1          51          90   8757.674    
           1          51          91  -19888.65    
           1          52          91  -17053.15    
           1          53          91  -30649.40    
           1          70          39   3625.542    
           1          71          39  -7203.206    
           1          71          40  -33951.37    
           1          71          41  -27615.80    
           1          72          42   24756.84    
           1          73          42   26116.80    
           1          73          43  -7119.396    
           1          74          43  -60661.85    
           1          73          44   46571.17    
           1          74          44   17238.43    
           1          73          45  -219051.6    
           1          73          46   78863.38    
           1          74          46   17164.97    
           1          74          47   43467.73    
           1          74          48  -1942.166    
           1          75          48  -86087.92    
           1          75          49  -42674.07    
           1          75          50   64664.31    
           1          76          50   34935.09    
           1          76          51  -157307.7    
           1         122          37  -25000.65    
           1         123          37  -102250.6    
           1         124          37  -82498.20    
           1         121          38   53328.43    
           1         124          38   71674.55    
           1         125          38  -86021.95    
           1         126          38  -108249.1    
           1         127          38   40310.50    
           1          76         103  -71731.88    
           1          77         103  -50046.94    
           1          81         103  -43470.61    
           1          82         103  -32967.76    
           1          74         104  -98165.74    
           1          78         104  -68584.56    
           1          79         104  -69996.69    
           1          80         104  -63696.14    
           1          81         104   36416.23    
           1          73         105  -140.4392    
           1          96          72  -7395.476    
           1          97          72  -56581.34    
           1          41          91  -8592.943    
           1          42          91  -10241.39    
           1          43          91  -26368.05    
           1          44          91  -3784.995    
           1          45          91  -27666.29    
           1          46          91  -7079.194    
           1          70         104  -38959.43    
           1          71         104  -26476.14    
           1          72         104  -72878.62    
           1          72         105  -33062.85    
           1          95          73  -15834.38    
           1          96          73  -74020.58    
           1          95          74  -134385.8    
           1          95          75  -32577.15    
           1         140          26  -156069.0    
           1         141          26  -22870.06    
           1         143          26  -177258.8    
           1         144          26   125113.6    
           1         145          26  -82550.61    
           1         147          26  -205393.8    
           1         148          27  -170764.7    
           1         150          28  -104313.3    
           1         151          29  -67363.53    
           1         151          30  -26229.74    
           1         152          30  -145302.9    
           1         152          31   35751.65    
           1         153          31  -77190.91    
           1         154          31   39451.43    
           1         154          32  -60787.56    
           1         155          33  -101230.0    
           1         155          34  -41039.93    
           1         156          34  -66451.45    
           1         157          35  -114214.4    
           1         158          35   47309.10    
           1         158          36  -59061.97    
           1         100         100  -85599.31    
           1         100         101   13029.67    
           1         100         102  -7835.569    
           1         100         103  -31260.25    
           1         100         104  -11183.47    
           1         100         105  -26224.06    
           1          99         106  -142982.0    
           1          99         107  -23290.23    
           1          99         108  -44248.82    
           1          55          48   24999.85    
           1          56          48  -19828.72    
           1          51          49  -35275.45    
           1          52          49  -50845.63    
           1          53          49   8361.414    
           1          54          49  -72827.91    
           1          55          49   60088.09    
           1          56          49   25784.69    
           1          57          49  -125430.6    
           1          57          50   23320.89    
           1          58          50  -23602.46    
           1          59          50  -67273.30    
           1          59          51   61018.64    
           1          59          52  -65224.50    
           1          60          52  -5702.043    
           1          60          53   9714.345    
           1          61          53  -55317.70    
           1          81          26   30288.59    
           1          81          27   38456.31    
           1          82          27   32600.49    
           1          82          28   25668.92    
           1          81          29   22721.71    
           1          82          29  -18156.81    
           1          82          30  -147946.6    
           1          81          31   48863.70    
           1          82          31   62683.16    
           1          81          32   31476.44    
           1          82          32  -162912.2    
           1          82          33   36884.97    
           1          81          34  -4142.403    
           1          80          35   36680.88    
           1          81          35   21416.28    
           1          80          36  -62100.04    
           1          80          37   5899.955    
           1          80          38   6117.998    
           1          81          38  -3141.920    
           1          80          39  -34243.79    
           1          81          39  -8764.301    
           1          80          40  -16495.57    
           1          81          40  -9267.064    
           1          81          41  -3780.832    
           1          80          42  -8504.442    
           1          80          43   8527.480    
           1          80          44   2572.624    
           1          81          44  -7940.103    
           1          81          45   9431.627    
           1          79          46  -5418.921    
           1          80          46   11940.58    
           1          79          47  -17105.47    
           1          80          48   77895.05    
           1          80          49   20524.13    
           1          81          49  -21929.44    
           1          80          50  -13947.66    
           1          81          50   58338.94    
           1          79          51   61734.15    
           1          80          51  -119597.4    
           1         144          15  -154282.5    
           1         145          15   79970.68    
           1         145          16  -237373.3    
           1         146          17  -172128.3    
           1         147          17   18694.43    
           1         147          18   58702.24    
           1         148          18  -156262.8    
           1         149          18  -119254.2    