 MODFLOW River Stage (L) (for each River Cell)
 --Calculated from SWAT Channel Depth--
 
 Day:           1
 Channel depth, Cell Row, Cell Column
  0.0000000E+00          27          86
  0.0000000E+00          28          86
  0.0000000E+00          29          85
  0.0000000E+00          29          99
  0.0000000E+00          30          85
  0.0000000E+00          30          98
  0.0000000E+00          30         100
  0.0000000E+00          31          85
  0.0000000E+00          31          97
  0.0000000E+00          31          98
  0.0000000E+00          31         104
  0.0000000E+00          31         105
  0.0000000E+00          31         106
  0.0000000E+00          31         107
  0.0000000E+00          32          85
  0.0000000E+00          32          86
  0.0000000E+00          32          96
  0.0000000E+00          32          97
  0.0000000E+00          32         103
  0.0000000E+00          32         104
  0.0000000E+00          33          83
  0.0000000E+00          33          84
  0.0000000E+00          33          85
  0.0000000E+00          33          86
  0.0000000E+00          33          95
  0.0000000E+00          33          96
  0.0000000E+00          33          97
  0.0000000E+00          33         101
  0.0000000E+00          33         102
  0.0000000E+00          33         103
  0.0000000E+00          34          81
  0.0000000E+00          34          82
  0.0000000E+00          34          83
  0.0000000E+00          34          84
  0.0000000E+00          34          85
  0.0000000E+00          34          86
  0.0000000E+00          34          87
  0.0000000E+00          34          95
  0.0000000E+00          34          97
  0.0000000E+00          34          98
  0.0000000E+00          34          99
  0.0000000E+00          34         100
  0.0000000E+00          34         101
  0.0000000E+00          35          80
  0.0000000E+00          35          87
  0.0000000E+00          35          88
  0.0000000E+00          35          95
  0.0000000E+00          36          88
  0.0000000E+00          36          94
  0.0000000E+00          36          95
  0.0000000E+00          37          89
  0.0000000E+00          37          93
  0.0000000E+00          37          94
  0.0000000E+00          38          89
  0.0000000E+00          39          89
  0.0000000E+00          39          92
  0.0000000E+00          40          64
  0.0000000E+00          40          65
  0.0000000E+00          40          90
  0.0000000E+00          40          92
  0.0000000E+00          41          63
  0.0000000E+00          41          64
  0.0000000E+00          41          91
  0.0000000E+00          41          92
  0.0000000E+00          42          61
  0.0000000E+00          42          62
  0.0000000E+00          42          63
  0.0000000E+00          42          91
  0.0000000E+00          43          60
  0.0000000E+00          43          61
  0.0000000E+00          43          91
  0.0000000E+00          44          58
  0.0000000E+00          44          59
  0.0000000E+00          44          60
  0.0000000E+00          44          91
  0.0000000E+00          45          57
  0.0000000E+00          45          58
  0.0000000E+00          45          84
  0.0000000E+00          45          85
  0.0000000E+00          45          86
  0.0000000E+00          45          87
  0.0000000E+00          45          88
  0.0000000E+00          45          91
  0.0000000E+00          46          55
  0.0000000E+00          46          56
  0.0000000E+00          46          57
  0.0000000E+00          46          87
  0.0000000E+00          46          88
  0.0000000E+00          46          89
  0.0000000E+00          46          90
  0.0000000E+00          46          91
  0.0000000E+00          47          53
  0.0000000E+00          47          54
  0.0000000E+00          47          90
  0.0000000E+00          47          97
  0.0000000E+00          47          98
  0.0000000E+00          48          52
  0.0000000E+00          48          53
  0.0000000E+00          48          90
  0.0000000E+00          48          96
  0.0000000E+00          48          97
  0.0000000E+00          49          50
  0.0000000E+00          49          51
  0.0000000E+00          49          90
  0.0000000E+00          49          94
  0.0000000E+00          49          95
  0.0000000E+00          49          96
  0.0000000E+00          50          40
  0.0000000E+00          50          41
  0.0000000E+00          50          42
  0.0000000E+00          50          43
  0.0000000E+00          50          44
  0.0000000E+00          50          49
  0.0000000E+00          50          50
  0.0000000E+00          50          90
  0.0000000E+00          50          94
  0.0000000E+00          51          38
  0.0000000E+00          51          39
  0.0000000E+00          51          40
  0.0000000E+00          51          45
  0.0000000E+00          51          46
  0.0000000E+00          51          47
  0.0000000E+00          51          48
  0.0000000E+00          51          49
  0.0000000E+00          51          69
  0.0000000E+00          51          77
  0.0000000E+00          51          78
  0.0000000E+00          51          79
  0.0000000E+00          51          80
  0.0000000E+00          51          90
  0.0000000E+00          51          91
  0.0000000E+00          51          93
  0.0000000E+00          51          94
  0.0000000E+00          52          49
  0.0000000E+00          52          69
  0.0000000E+00          52          76
  0.0000000E+00          52          77
  0.0000000E+00          52          80
  0.0000000E+00          52          81
  0.0000000E+00          52          91
  0.0000000E+00          52          93
  0.0000000E+00          53          49
  0.0000000E+00          53          69
  0.0000000E+00          53          70
  0.0000000E+00          53          75
  0.0000000E+00          53          76
  0.0000000E+00          53          81
  0.0000000E+00          53          82
  0.0000000E+00          53          83
  0.0000000E+00          53          91
  0.0000000E+00          53          93
  0.0000000E+00          53          96
  0.0000000E+00          53         113
  0.0000000E+00          54          49
  0.0000000E+00          54          70
  0.0000000E+00          54          71
  0.0000000E+00          54          72
  0.0000000E+00          54          73
  0.0000000E+00          54          74
  0.0000000E+00          54          83
  0.0000000E+00          54          84
  0.0000000E+00          54          91
  0.0000000E+00          54          92
  0.0000000E+00          54          93
  0.0000000E+00          54          95
  0.0000000E+00          54         112
  0.0000000E+00          55          48
  0.0000000E+00          55          49
  0.0000000E+00          55          71
  0.0000000E+00          55          72
  0.0000000E+00          55          73
  0.0000000E+00          55          84
  0.0000000E+00          55          85
  0.0000000E+00          55          86
  0.0000000E+00          55          87
  0.0000000E+00          55          88
  0.0000000E+00          55          89
  0.0000000E+00          55          90
  0.0000000E+00          55          91
  0.0000000E+00          55          92
  0.0000000E+00          55          95
  0.0000000E+00          55         111
  0.0000000E+00          55         112
  0.0000000E+00          56          48
  0.0000000E+00          56          49
  0.0000000E+00          56          71
  0.0000000E+00          56          92
  0.0000000E+00          56          94
  0.0000000E+00          56         111
  0.0000000E+00          57          49
  0.0000000E+00          57          50
  0.0000000E+00          57          61
  0.0000000E+00          57          70
  0.0000000E+00          57          71
  0.0000000E+00          57          92
  0.0000000E+00          57          93
  0.0000000E+00          57          94
  0.0000000E+00          57         110
  0.0000000E+00          57         111
  0.0000000E+00          58          50
  0.0000000E+00          58          61
  0.0000000E+00          58          70
  0.0000000E+00          58          93
  0.0000000E+00          58          94
  0.0000000E+00          58         108
  0.0000000E+00          58         109
  0.0000000E+00          59          50
  0.0000000E+00          59          51
  0.0000000E+00          59          52
  0.0000000E+00          59          61
  0.0000000E+00          59          70
  0.0000000E+00          59          94
  0.0000000E+00          59         107
  0.0000000E+00          59         108
  0.0000000E+00          60          52
  0.0000000E+00          60          53
  0.0000000E+00          60          61
  0.0000000E+00          60          70
  0.0000000E+00          60         108
  0.0000000E+00          61          41
  0.0000000E+00          61          53
  0.0000000E+00          61          61
  0.0000000E+00          61          68
  0.0000000E+00          61         107
  0.0000000E+00          61         108
  0.0000000E+00          62          41
  0.0000000E+00          62          54
  0.0000000E+00          62          55
  0.0000000E+00          62          56
  0.0000000E+00          62          57
  0.0000000E+00          62          58
  0.0000000E+00          62          61
  0.0000000E+00          62          68
  0.0000000E+00          62         107
  0.0000000E+00          62         108
  0.0000000E+00          63          18
  0.0000000E+00          63          53
  0.0000000E+00          63          54
  0.0000000E+00          63          55
  0.0000000E+00          63          59
  0.0000000E+00          63          60
  0.0000000E+00          63          61
  0.0000000E+00          63          67
  0.0000000E+00          63         107
  0.0000000E+00          63         108
  0.0000000E+00          64          20
  0.0000000E+00          64          21
  0.0000000E+00          64          41
  0.0000000E+00          64          51
  0.0000000E+00          64          52
  0.0000000E+00          64          60
  0.0000000E+00          64          61
  0.0000000E+00          64          67
  0.0000000E+00          64         106
  0.0000000E+00          64         107
  0.0000000E+00          65          21
  0.0000000E+00          65          22
  0.0000000E+00          65          37
  0.0000000E+00          65          40
  0.0000000E+00          65          61
  0.0000000E+00          65          66
  0.0000000E+00          65          67
  0.0000000E+00          65         105
  0.0000000E+00          65         106
  0.0000000E+00          66          23
  0.0000000E+00          66          24
  0.0000000E+00          66          25
  0.0000000E+00          66          38
  0.0000000E+00          66          39
  0.0000000E+00          66          40
  0.0000000E+00          66          61
  0.0000000E+00          66          62
  0.0000000E+00          66          65
  0.0000000E+00          66          66
  0.0000000E+00          66         104
  0.0000000E+00          66         105
  0.0000000E+00          67          24
  0.0000000E+00          67          25
  0.0000000E+00          67          26
  0.0000000E+00          67          27
  0.0000000E+00          67          28
  0.0000000E+00          67          39
  0.0000000E+00          67          62
  0.0000000E+00          67          65
  0.0000000E+00          67         104
  0.0000000E+00          68          24
  0.0000000E+00          68          25
  0.0000000E+00          68          26
  0.0000000E+00          68          28
  0.0000000E+00          68          62
  0.0000000E+00          68          63
  0.0000000E+00          68          65
  0.0000000E+00          68         104
  0.0000000E+00          69          39
  0.0000000E+00          69          62
  0.0000000E+00          69          63
  0.0000000E+00          69         102
  0.0000000E+00          69         103
  0.0000000E+00          69         104
  0.0000000E+00          70          29
  0.0000000E+00          70          34
  0.0000000E+00          70          35
  0.0000000E+00          70          36
  0.0000000E+00          70          37
  0.0000000E+00          70          38
  0.0000000E+00          70          39
  0.0000000E+00          70          62
  0.0000000E+00          70          63
  0.0000000E+00          70          64
  0.0000000E+00          70         103
  0.0000000E+00          70         104
  0.0000000E+00          70         113
  0.0000000E+00          71          29
  0.0000000E+00          71          30
  0.0000000E+00          71          33
  0.0000000E+00          71          34
  0.0000000E+00          71          36
  0.0000000E+00          71          37
  0.0000000E+00          71          38
  0.0000000E+00          71          39
  0.0000000E+00          71          40
  0.0000000E+00          71          41
  0.0000000E+00          71          61
  0.0000000E+00          71          62
  0.0000000E+00          71         104
  0.0000000E+00          71         112
  0.0000000E+00          71         113
  0.0000000E+00          72          31
  0.0000000E+00          72          32
  0.0000000E+00          72          33
  0.0000000E+00          72          42
  0.0000000E+00          72          61
  0.0000000E+00          72         104
  0.0000000E+00          72         105
  0.0000000E+00          72         107
  0.0000000E+00          72         108
  0.0000000E+00          72         109
  0.0000000E+00          72         110
  0.0000000E+00          72         111
  0.0000000E+00          72         112
  0.0000000E+00          73          42
  0.0000000E+00          73          43
  0.0000000E+00          73          44
  0.0000000E+00          73          45
  0.0000000E+00          73          46
  0.0000000E+00          73          61
  0.0000000E+00          73          62
  0.0000000E+00          73         105
  0.0000000E+00          73         106
  0.0000000E+00          74          43
  0.0000000E+00          74          44
  0.0000000E+00          74          46
  0.0000000E+00          74          47
  0.0000000E+00          74          48
  0.0000000E+00          74          62
  0.0000000E+00          74          63
  0.0000000E+00          74         104
  0.0000000E+00          75          48
  0.0000000E+00          75          49
  0.0000000E+00          75          50
  0.0000000E+00          75          63
  0.0000000E+00          75          64
  0.0000000E+00          76          12
  0.0000000E+00          76          13
  0.0000000E+00          76          14
  0.0000000E+00          76          15
  0.0000000E+00          76          16
  0.0000000E+00          76          17
  0.0000000E+00          76          18
  0.0000000E+00          76          50
  0.0000000E+00          76          51
  0.0000000E+00          76          52
  0.0000000E+00          76          63
  0.0000000E+00          76         103
  0.0000000E+00          77          11
  0.0000000E+00          77          12
  0.0000000E+00          77          15
  0.0000000E+00          77          19
  0.0000000E+00          77          52
  0.0000000E+00          77          63
  0.0000000E+00          77         103
  0.0000000E+00          78          10
  0.0000000E+00          78          11
  0.0000000E+00          78          15
  0.0000000E+00          78          19
  0.0000000E+00          78          20
  0.0000000E+00          78          52
  0.0000000E+00          78          63
  0.0000000E+00          78         104
  0.0000000E+00          79          10
  0.0000000E+00          79          20
  0.0000000E+00          79          21
  0.0000000E+00          79          22
  0.0000000E+00          79          46
  0.0000000E+00          79          47
  0.0000000E+00          79          51
  0.0000000E+00          79          52
  0.0000000E+00          79          63
  0.0000000E+00          79          69
  0.0000000E+00          79         100
  0.0000000E+00          79         104
  0.0000000E+00          80          20
  0.0000000E+00          80          21
  0.0000000E+00          80          22
  0.0000000E+00          80          23
  0.0000000E+00          80          35
  0.0000000E+00          80          36
  0.0000000E+00          80          37
  0.0000000E+00          80          38
  0.0000000E+00          80          39
  0.0000000E+00          80          40
  0.0000000E+00          80          42
  0.0000000E+00          80          43
  0.0000000E+00          80          44
  0.0000000E+00          80          46
  0.0000000E+00          80          48
  0.0000000E+00          80          49
  0.0000000E+00          80          50
  0.0000000E+00          80          51
  0.0000000E+00          80          52
  0.0000000E+00          80          64
  0.0000000E+00          80          69
  0.0000000E+00          80         100
  0.0000000E+00          80         104
  0.0000000E+00          81          20
  0.0000000E+00          81          23
  0.0000000E+00          81          24
  0.0000000E+00          81          25
  0.0000000E+00          81          26
  0.0000000E+00          81          27
  0.0000000E+00          81          29
  0.0000000E+00          81          31
  0.0000000E+00          81          32
  0.0000000E+00          81          34
  0.0000000E+00          81          35
  0.0000000E+00          81          38
  0.0000000E+00          81          39
  0.0000000E+00          81          40
  0.0000000E+00          81          41
  0.0000000E+00          81          44
  0.0000000E+00          81          45
  0.0000000E+00          81          49
  0.0000000E+00          81          50
  0.0000000E+00          81          52
  0.0000000E+00          81          64
  0.0000000E+00          81          69
  0.0000000E+00          81          73
  0.0000000E+00          81         100
  0.0000000E+00          81         101
  0.0000000E+00          81         103
  0.0000000E+00          81         104
  0.0000000E+00          82          20
  0.0000000E+00          82          25
  0.0000000E+00          82          26
  0.0000000E+00          82          27
  0.0000000E+00          82          28
  0.0000000E+00          82          29
  0.0000000E+00          82          30
  0.0000000E+00          82          31
  0.0000000E+00          82          32
  0.0000000E+00          82          33
  0.0000000E+00          82          65
  0.0000000E+00          82          69
  0.0000000E+00          82          73
  0.0000000E+00          82         101
  0.0000000E+00          82         102
  0.0000000E+00          82         103
  0.0000000E+00          83          20
  0.0000000E+00          83          25
  0.0000000E+00          83          48
  0.0000000E+00          83          49
  0.0000000E+00          83          50
  0.0000000E+00          83          51
  0.0000000E+00          83          52
  0.0000000E+00          83          65
  0.0000000E+00          83          68
  0.0000000E+00          83          73
  0.0000000E+00          83         103
  0.0000000E+00          84          20
  0.0000000E+00          84          24
  0.0000000E+00          84          25
  0.0000000E+00          84          47
  0.0000000E+00          84          48
  0.0000000E+00          84          51
  0.0000000E+00          84          52
  0.0000000E+00          84          65
  0.0000000E+00          84          66
  0.0000000E+00          84          67
  0.0000000E+00          84          73
  0.0000000E+00          84         103
  0.0000000E+00          85          19
  0.0000000E+00          85          20
  0.0000000E+00          85          24
  0.0000000E+00          85          45
  0.0000000E+00          85          46
  0.0000000E+00          85          47
  0.0000000E+00          85          72
  0.0000000E+00          85          73
  0.0000000E+00          85         103
  0.0000000E+00          86          19
  0.0000000E+00          86          24
  0.0000000E+00          86          41
  0.0000000E+00          86          42
  0.0000000E+00          86          43
  0.0000000E+00          86          44
  0.0000000E+00          86          45
  0.0000000E+00          86          66
  0.0000000E+00          86          72
  0.0000000E+00          86         103
  0.0000000E+00          87          19
  0.0000000E+00          87          41
  0.0000000E+00          87          52
  0.0000000E+00          87          66
  0.0000000E+00          87          72
  0.0000000E+00          87         103
  0.0000000E+00          88          19
  0.0000000E+00          88          40
  0.0000000E+00          88          52
  0.0000000E+00          88          66
  0.0000000E+00          88          67
  0.0000000E+00          88          72
  0.0000000E+00          88          95
  0.0000000E+00          88         103
  0.0000000E+00          89          40
  0.0000000E+00          89          52
  0.0000000E+00          89          53
  0.0000000E+00          89          67
  0.0000000E+00          89          68
  0.0000000E+00          89          71
  0.0000000E+00          89          72
  0.0000000E+00          89          73
  0.0000000E+00          89          95
  0.0000000E+00          89          96
  0.0000000E+00          89          97
  0.0000000E+00          89          98
  0.0000000E+00          89         102
  0.0000000E+00          90          40
  0.0000000E+00          90          53
  0.0000000E+00          90          54
  0.0000000E+00          90          68
  0.0000000E+00          90          71
  0.0000000E+00          90          99
  0.0000000E+00          90         100
  0.0000000E+00          90         101
  0.0000000E+00          90         102
  0.0000000E+00          91          40
  0.0000000E+00          91          54
  0.0000000E+00          91          55
  0.0000000E+00          91          65
  0.0000000E+00          91          66
  0.0000000E+00          91          68
  0.0000000E+00          91          69
  0.0000000E+00          91          83
  0.0000000E+00          91         102
  0.0000000E+00          92          39
  0.0000000E+00          92          55
  0.0000000E+00          92          65
  0.0000000E+00          92          67
  0.0000000E+00          92          68
  0.0000000E+00          92          69
  0.0000000E+00          92          83
  0.0000000E+00          92          84
  0.0000000E+00          92         102
  0.0000000E+00          93          54
  0.0000000E+00          93          55
  0.0000000E+00          93          56
  0.0000000E+00          93          68
  0.0000000E+00          93          69
  0.0000000E+00          93          83
  0.0000000E+00          93         102
  0.0000000E+00          94          48
  0.0000000E+00          94          49
  0.0000000E+00          94          50
  0.0000000E+00          94          51
  0.0000000E+00          94          52
  0.0000000E+00          94          53
  0.0000000E+00          94          56
  0.0000000E+00          94          68
  0.0000000E+00          94          69
  0.0000000E+00          94          70
  0.0000000E+00          94          83
  0.0000000E+00          94          84
  0.0000000E+00          94         102
  0.0000000E+00          94         103
  0.0000000E+00          95          43
  0.0000000E+00          95          44
  0.0000000E+00          95          47
  0.0000000E+00          95          48
  0.0000000E+00          95          52
  0.0000000E+00          95          55
  0.0000000E+00          95          56
  0.0000000E+00          95          69
  0.0000000E+00          95          70
  0.0000000E+00          95          73
  0.0000000E+00          95          74
  0.0000000E+00          95          75
  0.0000000E+00          95          84
  0.0000000E+00          95         102
  0.0000000E+00          96          43
  0.0000000E+00          96          44
  0.0000000E+00          96          45
  0.0000000E+00          96          46
  0.0000000E+00          96          47
  0.0000000E+00          96          51
  0.0000000E+00          96          55
  0.0000000E+00          96          70
  0.0000000E+00          96          71
  0.0000000E+00          96          72
  0.0000000E+00          96          73
  0.0000000E+00          96          75
  0.0000000E+00          96          76
  0.0000000E+00          96          78
  0.0000000E+00          96          79
  0.0000000E+00          96          80
  0.0000000E+00          96          84
  0.0000000E+00          96         101
  0.0000000E+00          96         102
  0.0000000E+00          97          45
  0.0000000E+00          97          46
  0.0000000E+00          97          49
  0.0000000E+00          97          50
  0.0000000E+00          97          51
  0.0000000E+00          97          55
  0.0000000E+00          97          70
  0.0000000E+00          97          71
  0.0000000E+00          97          72
  0.0000000E+00          97          75
  0.0000000E+00          97          76
  0.0000000E+00          97          77
  0.0000000E+00          97          78
  0.0000000E+00          97          84
  0.0000000E+00          97         101
  0.0000000E+00          97         108
  0.0000000E+00          98          49
  0.0000000E+00          98          55
  0.0000000E+00          98          72
  0.0000000E+00          98          76
  0.0000000E+00          98          77
  0.0000000E+00          98          78
  0.0000000E+00          98          84
  0.0000000E+00          98         100
  0.0000000E+00          98         101
  0.0000000E+00          98         108
  0.0000000E+00          99          48
  0.0000000E+00          99          56
  0.0000000E+00          99          72
  0.0000000E+00          99          78
  0.0000000E+00          99          79
  0.0000000E+00          99          84
  0.0000000E+00          99          99
  0.0000000E+00          99         100
  0.0000000E+00          99         106
  0.0000000E+00          99         107
  0.0000000E+00          99         108
  0.0000000E+00          99         110
  0.0000000E+00         100          48
  0.0000000E+00         100          56
  0.0000000E+00         100          57
  0.0000000E+00         100          72
  0.0000000E+00         100          79
  0.0000000E+00         100          80
  0.0000000E+00         100          81
  0.0000000E+00         100          82
  0.0000000E+00         100          83
  0.0000000E+00         100          84
  0.0000000E+00         100          99
  0.0000000E+00         100         100
  0.0000000E+00         100         101
  0.0000000E+00         100         102
  0.0000000E+00         100         103
  0.0000000E+00         100         104
  0.0000000E+00         100         105
  0.0000000E+00         101          27
  0.0000000E+00         101          57
  0.0000000E+00         101          71
  0.0000000E+00         101          72
  0.0000000E+00         101          82
  0.0000000E+00         101          83
  0.0000000E+00         101          91
  0.0000000E+00         101          97
  0.0000000E+00         101          98
  0.0000000E+00         101          99
  0.0000000E+00         101         100
  0.0000000E+00         102          27
  0.0000000E+00         102          28
  0.0000000E+00         102          57
  0.0000000E+00         102          71
  0.0000000E+00         102          91
  0.0000000E+00         102          97
  0.0000000E+00         103          28
  0.0000000E+00         103          58
  0.0000000E+00         103          70
  0.0000000E+00         103          90
  0.0000000E+00         103          94
  0.0000000E+00         103          95
  0.0000000E+00         103          96
  0.0000000E+00         104          29
  0.0000000E+00         104          58
  0.0000000E+00         104          70
  0.0000000E+00         104          90
  0.0000000E+00         104          93
  0.0000000E+00         105          29
  0.0000000E+00         105          30
  0.0000000E+00         105          31
  0.0000000E+00         105          36
  0.0000000E+00         105          37
  0.0000000E+00         105          58
  0.0000000E+00         105          71
  0.0000000E+00         105          89
  0.0000000E+00         105          90
  0.0000000E+00         105          91
  0.0000000E+00         105          92
  0.0000000E+00         105          93
  0.0000000E+00         106          30
  0.0000000E+00         106          31
  0.0000000E+00         106          37
  0.0000000E+00         106          58
  0.0000000E+00         106          71
  0.0000000E+00         106          87
  0.0000000E+00         106          88
  0.0000000E+00         106          89
  0.0000000E+00         106          90
  0.0000000E+00         106          91
  0.0000000E+00         107          30
  0.0000000E+00         107          31
  0.0000000E+00         107          37
  0.0000000E+00         107          58
  0.0000000E+00         107          71
  0.0000000E+00         107          85
  0.0000000E+00         107          86
  0.0000000E+00         107          87
  0.0000000E+00         108          31
  0.0000000E+00         108          37
  0.0000000E+00         108          59
  0.0000000E+00         108          71
  0.0000000E+00         108          84
  0.0000000E+00         108          85
  0.0000000E+00         109          31
  0.0000000E+00         109          36
  0.0000000E+00         109          37
  0.0000000E+00         109          59
  0.0000000E+00         109          60
  0.0000000E+00         109          61
  0.0000000E+00         109          70
  0.0000000E+00         109          84
  0.0000000E+00         109          89