 Groundwater/Surface Water NO3 exchange (kg/day)
 for each MODFLOW River Cell
 Positive: Mass seeps to the aquifer
 Negative: Mass from aquifer to river
 
 Day:           1
 Daily GW/SW NO3 Exchange for each River Cell
           1         192          18  0.0000000E+00
           1         193          18  0.0000000E+00
           1         191          19  0.0000000E+00
           1         191          20  0.0000000E+00
           1         191          21  0.0000000E+00
           1         190          22  0.0000000E+00
           1         189          23  0.0000000E+00
           1         190          23  0.0000000E+00
           1         185          22  0.0000000E+00
           1         186          22  0.0000000E+00
           1         187          22  0.0000000E+00
           1         189          22  0.0000000E+00
           1         184          23  0.0000000E+00
           1         188          23  0.0000000E+00
           1         183          24  0.0000000E+00
           1         183          25  0.0000000E+00
           1         179          26  0.0000000E+00
           1         180          26  0.0000000E+00
           1         183          26  0.0000000E+00
           1         181          26  0.0000000E+00
           1         182          26  0.0000000E+00
           1         178          27  0.0000000E+00
           1         177          28  0.0000000E+00
           1         176          29  0.0000000E+00
           1         177          29  0.0000000E+00
           1         174          30  0.0000000E+00
           1         175          30  0.0000000E+00
           1         176          30  0.0000000E+00
           1         174          31  0.0000000E+00
           1         176          31  0.0000000E+00
           1         172          32  0.0000000E+00
           1         173          32  0.0000000E+00
           1         174          32  0.0000000E+00
           1         171          33  0.0000000E+00
           1         172          33  0.0000000E+00
           1         166          34  0.0000000E+00
           1         167          34  0.0000000E+00
           1         168          34  0.0000000E+00
           1         169          34  0.0000000E+00
           1         170          34  0.0000000E+00
           1         171          34  0.0000000E+00
           1         165          35  0.0000000E+00
           1         166          35  0.0000000E+00
           1         164          36  0.0000000E+00
           1         165          36  0.0000000E+00
           1         163          38  0.0000000E+00
           1         162          39  0.0000000E+00
           1         162          40  0.0000000E+00
           1         163          40  0.0000000E+00
           1         163          41  0.0000000E+00
           1         163          42  0.0000000E+00
           1         162          43  0.0000000E+00
           1         163          43  0.0000000E+00
           1         162          44  0.0000000E+00
           1         161          45  0.0000000E+00
           1         162          45  0.0000000E+00
           1         161          46  0.0000000E+00
           1         161          47  0.0000000E+00
           1         158          47  0.0000000E+00
           1         159          47  0.0000000E+00
           1         160          47  0.0000000E+00
           1         157          48  0.0000000E+00
           1         158          48  0.0000000E+00
           1         155          46  0.0000000E+00
           1         156          46  0.0000000E+00
           1         157          46  0.0000000E+00
           1         157          47  0.0000000E+00
           1         156          48  0.0000000E+00
           1         154          47  0.0000000E+00
           1         155          47  0.0000000E+00
           1         152          48  0.0000000E+00
           1         153          48  0.0000000E+00
           1         154          48  0.0000000E+00
           1         150          49  0.0000000E+00
           1         151          49  0.0000000E+00
           1         152          49  0.0000000E+00
           1         149          51  0.0000000E+00
           1         148          52  0.0000000E+00
           1         149          52  0.0000000E+00
           1         148          53  0.0000000E+00
           1         148          54  0.0000000E+00
           1         148          55  0.0000000E+00
           1         148          56  0.0000000E+00
           1         147          56  0.0000000E+00
           1         147          57  0.0000000E+00
           1         146          58  0.0000000E+00
           1         147          58  0.0000000E+00
           1         137          59  0.0000000E+00
           1         138          59  0.0000000E+00
           1         139          59  0.0000000E+00
           1         144          59  0.0000000E+00
           1         145          59  0.0000000E+00
           1         146          59  0.0000000E+00
           1         136          60  0.0000000E+00
           1         140          60  0.0000000E+00
           1         141          60  0.0000000E+00
           1         142          60  0.0000000E+00
           1         143          60  0.0000000E+00
           1         144          60  0.0000000E+00
           1         135          60  0.0000000E+00
           1         133          61  0.0000000E+00
           1         134          61  0.0000000E+00
           1         135          61  0.0000000E+00
           1         130          62  0.0000000E+00
           1         131          62  0.0000000E+00
           1         132          62  0.0000000E+00
           1         133          62  0.0000000E+00
           1         130          63  0.0000000E+00
           1         131          64  0.0000000E+00
           1         132          64  0.0000000E+00
           1         131          65  0.0000000E+00
           1         131          66  0.0000000E+00
           1         127          65  0.0000000E+00
           1         128          65  0.0000000E+00
           1         129          65  0.0000000E+00
           1         130          65  0.0000000E+00
           1         126          66  0.0000000E+00
           1         126          67  0.0000000E+00
           1         122          67  0.0000000E+00
           1         125          67  0.0000000E+00
           1         123          68  0.0000000E+00
           1         124          68  0.0000000E+00
           1         125          68  0.0000000E+00
           1         121          67  0.0000000E+00
           1         121          68  0.0000000E+00
           1         120          68  0.0000000E+00
           1         119          67  0.0000000E+00
           1         118          68  0.0000000E+00
           1         119          68  0.0000000E+00
           1         118          69  0.0000000E+00
           1         103          70  0.0000000E+00
           1         104          70  0.0000000E+00
           1         109          70  0.0000000E+00
           1         110          70  0.0000000E+00
           1         111          70  0.0000000E+00
           1         112          70  0.0000000E+00
           1         117          70  0.0000000E+00
           1         101          71  0.0000000E+00
           1         102          71  0.0000000E+00
           1         105          71  0.0000000E+00
           1         106          71  0.0000000E+00
           1         107          71  0.0000000E+00
           1         108          71  0.0000000E+00
           1         117          71  0.0000000E+00
           1          98          72  0.0000000E+00
           1          99          72  0.0000000E+00
           1         100          72  0.0000000E+00
           1         101          72  0.0000000E+00
           1         114          72  0.0000000E+00
           1         115          72  0.0000000E+00
           1         116          72  0.0000000E+00
           1          92          67  0.0000000E+00
           1          92          68  0.0000000E+00
           1          93          68  0.0000000E+00
           1          94          68  0.0000000E+00
           1          94          69  0.0000000E+00
           1          95          69  0.0000000E+00
           1          96          70  0.0000000E+00
           1          97          70  0.0000000E+00
           1          97          71  0.0000000E+00
           1          86          66  0.0000000E+00
           1          87          66  0.0000000E+00
           1          88          66  0.0000000E+00
           1          88          67  0.0000000E+00
           1          89          67  0.0000000E+00
           1          89          68  0.0000000E+00
           1          90          68  0.0000000E+00
           1          91          68  0.0000000E+00
           1         121          69  0.0000000E+00
           1         120          70  0.0000000E+00
           1         121          70  0.0000000E+00
           1         120          71  0.0000000E+00
           1         119          72  0.0000000E+00
           1         120          72  0.0000000E+00
           1         119          73  0.0000000E+00
           1         118          74  0.0000000E+00
           1         119          74  0.0000000E+00
           1         118          75  0.0000000E+00
           1         117          76  0.0000000E+00
           1         117          77  0.0000000E+00
           1         115          78  0.0000000E+00
           1         116          78  0.0000000E+00
           1         117          78  0.0000000E+00
           1         114          79  0.0000000E+00
           1         115          79  0.0000000E+00
           1         114          80  0.0000000E+00
           1         113          80  0.0000000E+00
           1         111          81  0.0000000E+00
           1         112          81  0.0000000E+00
           1          75          63  0.0000000E+00
           1          76          63  0.0000000E+00
           1          77          63  0.0000000E+00
           1          78          63  0.0000000E+00
           1          79          63  0.0000000E+00
           1          75          64  0.0000000E+00
           1          80          64  0.0000000E+00
           1          81          64  0.0000000E+00
           1          82          65  0.0000000E+00
           1          83          65  0.0000000E+00
           1          84          65  0.0000000E+00
           1          84          66  0.0000000E+00
           1         111          82  0.0000000E+00
           1         110          83  0.0000000E+00
           1         111          83  0.0000000E+00
           1         109          84  0.0000000E+00
           1         110          84  0.0000000E+00
           1         104          58  0.0000000E+00
           1         105          58  0.0000000E+00
           1         106          58  0.0000000E+00
           1         107          58  0.0000000E+00
           1         108          59  0.0000000E+00
           1         109          59  0.0000000E+00
           1         109          60  0.0000000E+00
           1         109          61  0.0000000E+00
           1         110          61  0.0000000E+00
           1         111          61  0.0000000E+00
           1         111          62  0.0000000E+00
           1         112          62  0.0000000E+00
           1         112          63  0.0000000E+00
           1         113          63  0.0000000E+00
           1         113          64  0.0000000E+00
           1         113          65  0.0000000E+00
           1         115          66  0.0000000E+00
           1         116          67  0.0000000E+00
           1         117          67  0.0000000E+00
           1         118          67  0.0000000E+00
           1          71          61  0.0000000E+00
           1          72          61  0.0000000E+00
           1          73          61  0.0000000E+00
           1          70          62  0.0000000E+00
           1          71          62  0.0000000E+00
           1          73          62  0.0000000E+00
           1          74          62  0.0000000E+00
           1          74          63  0.0000000E+00
           1         108          84  0.0000000E+00
           1         107          85  0.0000000E+00
           1         108          85  0.0000000E+00
           1         107          86  0.0000000E+00
           1         106          87  0.0000000E+00
           1         107          87  0.0000000E+00
           1         106          88  0.0000000E+00
           1          93          55  0.0000000E+00
           1          95          55  0.0000000E+00
           1          96          55  0.0000000E+00
           1          97          55  0.0000000E+00
           1          98          55  0.0000000E+00
           1          93          56  0.0000000E+00
           1          94          56  0.0000000E+00
           1          95          56  0.0000000E+00
           1          99          56  0.0000000E+00
           1         100          56  0.0000000E+00
           1         100          57  0.0000000E+00
           1         101          57  0.0000000E+00
           1         102          57  0.0000000E+00
           1         103          58  0.0000000E+00
           1          70          63  0.0000000E+00
           1          70          64  0.0000000E+00
           1          66          65  0.0000000E+00
           1          67          65  0.0000000E+00
           1          68          65  0.0000000E+00
           1          65          66  0.0000000E+00
           1          66          66  0.0000000E+00
           1          64          67  0.0000000E+00
           1          65          67  0.0000000E+00
           1          63          67  0.0000000E+00
           1          61          68  0.0000000E+00
           1          62          68  0.0000000E+00
           1          57          70  0.0000000E+00
           1          58          70  0.0000000E+00
           1          59          70  0.0000000E+00
           1          60          70  0.0000000E+00
           1          57          71  0.0000000E+00
           1         106          89  0.0000000E+00
           1         105          90  0.0000000E+00
           1         106          90  0.0000000E+00
           1         105          91  0.0000000E+00
           1         106          91  0.0000000E+00
           1         105          92  0.0000000E+00
           1         104          93  0.0000000E+00
           1         105          93  0.0000000E+00
           1         103          94  0.0000000E+00
           1         103          95  0.0000000E+00
           1         103          96  0.0000000E+00
           1         101          97  0.0000000E+00
           1         102          97  0.0000000E+00
           1         101          98  0.0000000E+00
           1         101          99  0.0000000E+00
           1         101         100  0.0000000E+00
           1          55          71  0.0000000E+00
           1          56          71  0.0000000E+00
           1          55          72  0.0000000E+00
           1         139          53  0.0000000E+00
           1         139          54  0.0000000E+00
           1         140          54  0.0000000E+00
           1         141          54  0.0000000E+00
           1         142          54  0.0000000E+00
           1         143          54  0.0000000E+00
           1         145          54  0.0000000E+00
           1         146          54  0.0000000E+00
           1         147          54  0.0000000E+00
           1          87          52  0.0000000E+00
           1          88          52  0.0000000E+00
           1          89          52  0.0000000E+00
           1          89          53  0.0000000E+00
           1          90          53  0.0000000E+00
           1          90          54  0.0000000E+00
           1          91          54  0.0000000E+00
           1          91          55  0.0000000E+00
           1          92          55  0.0000000E+00
           1          79          52  0.0000000E+00
           1          80          52  0.0000000E+00
           1          81          52  0.0000000E+00
           1          99          99  0.0000000E+00
           1         100          99  0.0000000E+00
           1          98         100  0.0000000E+00
           1          99         100  0.0000000E+00
           1          96         101  0.0000000E+00
           1          97         101  0.0000000E+00
           1          98         101  0.0000000E+00
           1          91         102  0.0000000E+00
           1          92         102  0.0000000E+00
           1          93         102  0.0000000E+00
           1          94         102  0.0000000E+00
           1          95         102  0.0000000E+00
           1          96         102  0.0000000E+00
           1          94         103  0.0000000E+00
           1         135          46  0.0000000E+00
           1         135          47  0.0000000E+00
           1         136          47  0.0000000E+00
           1         137          48  0.0000000E+00
           1         137          49  0.0000000E+00
           1         138          50  0.0000000E+00
           1         139          50  0.0000000E+00
           1         139          51  0.0000000E+00
           1         139          52  0.0000000E+00
           1         140          52  0.0000000E+00
           1         159          35  0.0000000E+00
           1         159          36  0.0000000E+00
           1         159          37  0.0000000E+00
           1         160          37  0.0000000E+00
           1         161          37  0.0000000E+00
           1         162          37  0.0000000E+00
           1         163          37  0.0000000E+00
           1          76          52  0.0000000E+00
           1          77          52  0.0000000E+00
           1          78          52  0.0000000E+00
           1          64          61  0.0000000E+00
           1          65          61  0.0000000E+00
           1          66          61  0.0000000E+00
           1          66          62  0.0000000E+00
           1          67          62  0.0000000E+00
           1          68          62  0.0000000E+00
           1          69          62  0.0000000E+00
           1          68          63  0.0000000E+00
           1          69          63  0.0000000E+00
           1         135          39  0.0000000E+00
           1         135          40  0.0000000E+00
           1         136          40  0.0000000E+00
           1         135          41  0.0000000E+00
           1         134          42  0.0000000E+00
           1         135          42  0.0000000E+00
           1         134          43  0.0000000E+00
           1         135          43  0.0000000E+00
           1         135          44  0.0000000E+00
           1         135          45  0.0000000E+00
           1          89         102  0.0000000E+00
           1          90         102  0.0000000E+00
           1          83         103  0.0000000E+00
           1          84         103  0.0000000E+00
           1          85         103  0.0000000E+00
           1          86         103  0.0000000E+00
           1          87         103  0.0000000E+00
           1          88         103  0.0000000E+00
           1          54          73  0.0000000E+00
           1          55          73  0.0000000E+00
           1          54          74  0.0000000E+00
           1          53          75  0.0000000E+00
           1          52          76  0.0000000E+00
           1          53          76  0.0000000E+00
           1          51          77  0.0000000E+00
           1          52          77  0.0000000E+00
           1          51          78  0.0000000E+00
           1          51          79  0.0000000E+00
           1          51          80  0.0000000E+00
           1          52          80  0.0000000E+00
           1          52          81  0.0000000E+00
           1          53          81  0.0000000E+00
           1          53          82  0.0000000E+00
           1          53          83  0.0000000E+00
           1          54          83  0.0000000E+00
           1          54          84  0.0000000E+00
           1          55          84  0.0000000E+00
           1          55          85  0.0000000E+00
           1          55          86  0.0000000E+00
           1          55          87  0.0000000E+00
           1          55          88  0.0000000E+00
           1          55          89  0.0000000E+00
           1          55          90  0.0000000E+00
           1          55          91  0.0000000E+00
           1          54          91  0.0000000E+00
           1         129          37  0.0000000E+00
           1         130          37  0.0000000E+00
           1         131          37  0.0000000E+00
           1         132          37  0.0000000E+00
           1         128          38  0.0000000E+00
           1         129          38  0.0000000E+00
           1         132          38  0.0000000E+00
           1         133          38  0.0000000E+00
           1         134          38  0.0000000E+00
           1         134          39  0.0000000E+00
           1          62          54  0.0000000E+00
           1          63          54  0.0000000E+00
           1          62          55  0.0000000E+00
           1          63          55  0.0000000E+00
           1          62          56  0.0000000E+00
           1          62          57  0.0000000E+00
           1          62          58  0.0000000E+00
           1          63          59  0.0000000E+00
           1          63          60  0.0000000E+00
           1          64          60  0.0000000E+00
           1          48          90  0.0000000E+00
           1          49          90  0.0000000E+00
           1          50          90  0.0000000E+00
           1          51          90  0.0000000E+00
           1          51          91  0.0000000E+00
           1          52          91  0.0000000E+00
           1          53          91  0.0000000E+00
           1          70          39  0.0000000E+00
           1          71          39  0.0000000E+00
           1          71          40  0.0000000E+00
           1          71          41  0.0000000E+00
           1          72          42  0.0000000E+00
           1          73          42  0.0000000E+00
           1          73          43  0.0000000E+00
           1          74          43  0.0000000E+00
           1          73          44  0.0000000E+00
           1          74          44  0.0000000E+00
           1          73          45  0.0000000E+00
           1          73          46  0.0000000E+00
           1          74          46  0.0000000E+00
           1          74          47  0.0000000E+00
           1          74          48  0.0000000E+00
           1          75          48  0.0000000E+00
           1          75          49  0.0000000E+00
           1          75          50  0.0000000E+00
           1          76          50  0.0000000E+00
           1          76          51  0.0000000E+00
           1         122          37  0.0000000E+00
           1         123          37  0.0000000E+00
           1         124          37  0.0000000E+00
           1         121          38  0.0000000E+00
           1         124          38  0.0000000E+00
           1         125          38  0.0000000E+00
           1         126          38  0.0000000E+00
           1         127          38  0.0000000E+00
           1          76         103  0.0000000E+00
           1          77         103  0.0000000E+00
           1          81         103  0.0000000E+00
           1          82         103  0.0000000E+00
           1          74         104  0.0000000E+00
           1          78         104  0.0000000E+00
           1          79         104  0.0000000E+00
           1          80         104  0.0000000E+00
           1          81         104  0.0000000E+00
           1          73         105  0.0000000E+00
           1          96          72  0.0000000E+00
           1          97          72  0.0000000E+00
           1          41          91  0.0000000E+00
           1          42          91  0.0000000E+00
           1          43          91  0.0000000E+00
           1          44          91  0.0000000E+00
           1          45          91  0.0000000E+00
           1          46          91  0.0000000E+00
           1          70         104  0.0000000E+00
           1          71         104  0.0000000E+00
           1          72         104  0.0000000E+00
           1          72         105  0.0000000E+00
           1          95          73  0.0000000E+00
           1          96          73  0.0000000E+00
           1          95          74  0.0000000E+00
           1          95          75  0.0000000E+00
           1         140          26  0.0000000E+00
           1         141          26  0.0000000E+00
           1         143          26  0.0000000E+00
           1         144          26  0.0000000E+00
           1         145          26  0.0000000E+00
           1         147          26  0.0000000E+00
           1         148          27  0.0000000E+00
           1         150          28  0.0000000E+00
           1         151          29  0.0000000E+00
           1         151          30  0.0000000E+00
           1         152          30  0.0000000E+00
           1         152          31  0.0000000E+00
           1         153          31  0.0000000E+00
           1         154          31  0.0000000E+00
           1         154          32  0.0000000E+00
           1         155          33  0.0000000E+00
           1         155          34  0.0000000E+00
           1         156          34  0.0000000E+00
           1         157          35  0.0000000E+00
           1         158          35  0.0000000E+00
           1         158          36  0.0000000E+00
           1         100         100  0.0000000E+00
           1         100         101  0.0000000E+00
           1         100         102  0.0000000E+00
           1         100         103  0.0000000E+00
           1         100         104  0.0000000E+00
           1         100         105  0.0000000E+00
           1          99         106  0.0000000E+00
           1          99         107  0.0000000E+00
           1          99         108  0.0000000E+00
           1          55          48  0.0000000E+00
           1          56          48  0.0000000E+00
           1          51          49  0.0000000E+00
           1          52          49  0.0000000E+00
           1          53          49  0.0000000E+00
           1          54          49  0.0000000E+00
           1          55          49  0.0000000E+00
           1          56          49  0.0000000E+00
           1          57          49  0.0000000E+00
           1          57          50  0.0000000E+00
           1          58          50  0.0000000E+00
           1          59          50  0.0000000E+00
           1          59          51  0.0000000E+00
           1          59          52  0.0000000E+00
           1          60          52  0.0000000E+00
           1          60          53  0.0000000E+00
           1          61          53  0.0000000E+00
           1          81          26  0.0000000E+00
           1          81          27  0.0000000E+00
           1          82          27  0.0000000E+00
           1          82          28  0.0000000E+00
           1          81          29  0.0000000E+00
           1          82          29  0.0000000E+00
           1          82          30  0.0000000E+00
           1          81          31  0.0000000E+00
           1          82          31  0.0000000E+00
           1          81          32  0.0000000E+00
           1          82          32  0.0000000E+00
           1          82          33  0.0000000E+00
           1          81          34  0.0000000E+00
           1          80          35  0.0000000E+00
           1          81          35  0.0000000E+00
           1          80          36  0.0000000E+00
           1          80          37  0.0000000E+00
           1          80          38  0.0000000E+00
           1          81          38  0.0000000E+00
           1          80          39  0.0000000E+00
           1          81          39  0.0000000E+00
           1          80          40  0.0000000E+00
           1          81          40  0.0000000E+00
           1          81          41  0.0000000E+00
           1          80          42  0.0000000E+00
           1          80          43  0.0000000E+00
           1          80          44  0.0000000E+00
           1          81          44  0.0000000E+00
           1          81          45  0.0000000E+00
           1          79          46  0.0000000E+00
           1          80          46  0.0000000E+00
           1          79          47  0.0000000E+00
           1          80          48  0.0000000E+00
           1          80          49  0.0000000E+00
           1          81          49  0.0000000E+00
           1          80          50  0.0000000E+00
           1          81          50  0.0000000E+00
           1          79          51  0.0000000E+00
           1          80          51  0.0000000E+00
           1         144          15  0.0000000E+00
           1         145          15  0.0000000E+00
           1         145          16  0.0000000E+00
           1         146          17  0.0000000E+00
           1         147          17  0.0000000E+00